@<TRIPOS>MOLECULE
CNT
  600   876     1     0     0
SMALL
No Charge or Current Charge


@<TRIPOS>ATOM
      1 C           4.5890    0.0000    0.0000 ca        1 CNT     -0.300000
      2 C1          3.9750    0.0000    2.2950 ca        1 CNT     -0.300000
      3 C2          2.2950    0.0000    3.9750 ca        1 CNT     -0.300000
      4 C3          0.0000    0.0000    4.5890 ca        1 CNT     -0.300000
      5 C4         -2.2950    0.0000    3.9750 ca        1 CNT     -0.300000
      6 C5         -3.9750    0.0000    2.2950 ca        1 CNT     -0.300000
      7 C6         -4.5890    0.0000    0.0000 ca        1 CNT     -0.300000
      8 C7         -3.9750    0.0000   -2.2950 ca        1 CNT     -0.300000
      9 C8         -2.2950    0.0000   -3.9750 ca        1 CNT     -0.300000
     10 C9         -0.0000    0.0000   -4.5890 ca        1 CNT     -0.300000
     11 C10         2.2950    0.0000   -3.9750 ca        1 CNT     -0.300000
     12 C11         3.9750    0.0000   -2.2950 ca        1 CNT     -0.300000
     13 C12         4.4330   -0.6940    1.1880 ca        1 CNT      0.140000
     14 C13         3.2450   -0.6940    3.2450 ca        1 CNT      0.140000
     15 C14         1.1880   -0.6940    4.4330 ca        1 CNT      0.140000
     16 C15        -1.1880   -0.6940    4.4330 ca        1 CNT      0.140000
     17 C16        -3.2450   -0.6940    3.2450 ca        1 CNT      0.140000
     18 C17        -4.4330   -0.6940    1.1880 ca        1 CNT      0.140000
     19 C18        -4.4330   -0.6940   -1.1880 ca        1 CNT      0.140000
     20 C19        -3.2450   -0.6940   -3.2450 ca        1 CNT      0.140000
     21 C20        -1.1880   -0.6940   -4.4330 ca        1 CNT      0.140000
     22 C21         1.1880   -0.6940   -4.4330 ca        1 CNT      0.140000
     23 C22         3.2450   -0.6940   -3.2450 ca        1 CNT      0.140000
     24 C23         4.4330   -0.6940   -1.1880 ca        1 CNT      0.140000
     25 C24         4.4330   -2.0810    1.1880 ca        1 CNT      0.000000
     26 C25         3.2450   -2.0810    3.2450 ca        1 CNT      0.000000
     27 C26         1.1880   -2.0810    4.4330 ca        1 CNT      0.000000
     28 C27        -1.1880   -2.0810    4.4330 ca        1 CNT      0.000000
     29 C28        -3.2450   -2.0810    3.2450 ca        1 CNT      0.000000
     30 C29        -4.4330   -2.0810    1.1880 ca        1 CNT      0.000000
     31 C30        -4.4330   -2.0810   -1.1880 ca        1 CNT      0.000000
     32 C31        -3.2450   -2.0810   -3.2450 ca        1 CNT      0.000000
     33 C32        -1.1880   -2.0810   -4.4330 ca        1 CNT      0.000000
     34 C33         1.1880   -2.0810   -4.4330 ca        1 CNT      0.000000
     35 C34         3.2450   -2.0810   -3.2450 ca        1 CNT      0.000000
     36 C35         4.4330   -2.0810   -1.1880 ca        1 CNT      0.000000
     37 C36         4.5890   -2.7750    0.0000 ca        1 CNT      0.000000
     38 C37         3.9750   -2.7750    2.2950 ca        1 CNT      0.000000
     39 C38         2.2950   -2.7750    3.9750 ca        1 CNT      0.000000
     40 C39         0.0000   -2.7750    4.5890 ca        1 CNT      0.000000
     41 C40        -2.2950   -2.7750    3.9750 ca        1 CNT      0.000000
     42 C41        -3.9750   -2.7750    2.2950 ca        1 CNT      0.000000
     43 C42        -4.5890   -2.7750    0.0000 ca        1 CNT      0.000000
     44 C43        -3.9750   -2.7750   -2.2950 ca        1 CNT      0.000000
     45 C44        -2.2950   -2.7750   -3.9750 ca        1 CNT      0.000000
     46 C45        -0.0000   -2.7750   -4.5890 ca        1 CNT      0.000000
     47 C46         2.2950   -2.7750   -3.9750 ca        1 CNT      0.000000
     48 C47         3.9750   -2.7750   -2.2950 ca        1 CNT      0.000000
     49 C48         4.5890   -4.1620    0.0000 ca        1 CNT      0.000000
     50 C49         3.9750   -4.1620    2.2950 ca        1 CNT      0.000000
     51 C50         2.2950   -4.1620    3.9750 ca        1 CNT      0.000000
     52 C51         0.0000   -4.1620    4.5890 ca        1 CNT      0.000000
     53 C52        -2.2950   -4.1620    3.9750 ca        1 CNT      0.000000
     54 C53        -3.9750   -4.1620    2.2950 ca        1 CNT      0.000000
     55 C54        -4.5890   -4.1620    0.0000 ca        1 CNT      0.000000
     56 C55        -3.9750   -4.1620   -2.2950 ca        1 CNT      0.000000
     57 C56        -2.2950   -4.1620   -3.9750 ca        1 CNT      0.000000
     58 C57        -0.0000   -4.1620   -4.5890 ca        1 CNT      0.000000
     59 C58         2.2950   -4.1620   -3.9750 ca        1 CNT      0.000000
     60 C59         3.9750   -4.1620   -2.2950 ca        1 CNT      0.000000
     61 C60         4.4330   -4.8560    1.1880 ca        1 CNT      0.000000
     62 C61         3.2450   -4.8560    3.2450 ca        1 CNT      0.000000
     63 C62         1.1880   -4.8560    4.4330 ca        1 CNT      0.000000
     64 C63        -1.1880   -4.8560    4.4330 ca        1 CNT      0.000000
     65 C64        -3.2450   -4.8560    3.2450 ca        1 CNT      0.000000
     66 C65        -4.4330   -4.8560    1.1880 ca        1 CNT      0.000000
     67 C66        -4.4330   -4.8560   -1.1880 ca        1 CNT      0.000000
     68 C67        -3.2450   -4.8560   -3.2450 ca        1 CNT      0.000000
     69 C68        -1.1880   -4.8560   -4.4330 ca        1 CNT      0.000000
     70 C69         1.1880   -4.8560   -4.4330 ca        1 CNT      0.000000
     71 C70         3.2450   -4.8560   -3.2450 ca        1 CNT      0.000000
     72 C71         4.4330   -4.8560   -1.1880 ca        1 CNT      0.000000
     73 C72         4.4330   -6.2430    1.1880 ca        1 CNT      0.000000
     74 C73         3.2450   -6.2430    3.2450 ca        1 CNT      0.000000
     75 C74         1.1880   -6.2430    4.4330 ca        1 CNT      0.000000
     76 C75        -1.1880   -6.2430    4.4330 ca        1 CNT      0.000000
     77 C76        -3.2450   -6.2430    3.2450 ca        1 CNT      0.000000
     78 C77        -4.4330   -6.2430    1.1880 ca        1 CNT      0.000000
     79 C78        -4.4330   -6.2430   -1.1880 ca        1 CNT      0.000000
     80 C79        -3.2450   -6.2430   -3.2450 ca        1 CNT      0.000000
     81 C80        -1.1880   -6.2430   -4.4330 ca        1 CNT      0.000000
     82 C81         1.1880   -6.2430   -4.4330 ca        1 CNT      0.000000
     83 C82         3.2450   -6.2430   -3.2450 ca        1 CNT      0.000000
     84 C83         4.4330   -6.2430   -1.1880 ca        1 CNT      0.000000
     85 C84         4.5890   -6.9370    0.0000 ca        1 CNT      0.000000
     86 C85         3.9750   -6.9370    2.2950 ca        1 CNT      0.000000
     87 C86         2.2950   -6.9370    3.9750 ca        1 CNT      0.000000
     88 C87         0.0000   -6.9370    4.5890 ca        1 CNT      0.000000
     89 C88        -2.2950   -6.9370    3.9750 ca        1 CNT      0.000000
     90 C89        -3.9750   -6.9370    2.2950 ca        1 CNT      0.000000
     91 C90        -4.5890   -6.9370    0.0000 ca        1 CNT      0.000000
     92 C91        -3.9750   -6.9370   -2.2950 ca        1 CNT      0.000000
     93 C92        -2.2950   -6.9370   -3.9750 ca        1 CNT      0.000000
     94 C93        -0.0000   -6.9370   -4.5890 ca        1 CNT      0.000000
     95 C94         2.2950   -6.9370   -3.9750 ca        1 CNT      0.000000
     96 C95         3.9750   -6.9370   -2.2950 ca        1 CNT      0.000000
     97 C96         4.5890   -8.3240    0.0000 ca        1 CNT      0.000000
     98 C97         3.9750   -8.3240    2.2950 ca        1 CNT      0.000000
     99 C98         2.2950   -8.3240    3.9750 ca        1 CNT      0.000000
    100 C99         0.0000   -8.3240    4.5890 ca        1 CNT      0.000000
    101 C100       -2.2950   -8.3240    3.9750 ca        1 CNT      0.000000
    102 C101       -3.9750   -8.3240    2.2950 ca        1 CNT      0.000000
    103 C102       -4.5890   -8.3240    0.0000 ca        1 CNT      0.000000
    104 C103       -3.9750   -8.3240   -2.2950 ca        1 CNT      0.000000
    105 C104       -2.2950   -8.3240   -3.9750 ca        1 CNT      0.000000
    106 C105       -0.0000   -8.3240   -4.5890 ca        1 CNT      0.000000
    107 C106        2.2950   -8.3240   -3.9750 ca        1 CNT      0.000000
    108 C107        3.9750   -8.3240   -2.2950 ca        1 CNT      0.000000
    109 C108        4.4330   -9.0180    1.1880 ca        1 CNT      0.000000
    110 C109        3.2450   -9.0180    3.2450 ca        1 CNT      0.000000
    111 C110        1.1880   -9.0180    4.4330 ca        1 CNT      0.000000
    112 C111       -1.1880   -9.0180    4.4330 ca        1 CNT      0.000000
    113 C112       -3.2450   -9.0180    3.2450 ca        1 CNT      0.000000
    114 C113       -4.4330   -9.0180    1.1880 ca        1 CNT      0.000000
    115 C114       -4.4330   -9.0180   -1.1880 ca        1 CNT      0.000000
    116 C115       -3.2450   -9.0180   -3.2450 ca        1 CNT      0.000000
    117 C116       -1.1880   -9.0180   -4.4330 ca        1 CNT      0.000000
    118 C117        1.1880   -9.0180   -4.4330 ca        1 CNT      0.000000
    119 C118        3.2450   -9.0180   -3.2450 ca        1 CNT      0.000000
    120 C119        4.4330   -9.0180   -1.1880 ca        1 CNT      0.000000
    121 C120        4.4330  -10.4050    1.1880 ca        1 CNT      0.000000
    122 C121        3.2450  -10.4050    3.2450 ca        1 CNT      0.000000
    123 C122        1.1880  -10.4050    4.4330 ca        1 CNT      0.000000
    124 C123       -1.1880  -10.4050    4.4330 ca        1 CNT      0.000000
    125 C124       -3.2450  -10.4050    3.2450 ca        1 CNT      0.000000
    126 C125       -4.4330  -10.4050    1.1880 ca        1 CNT      0.000000
    127 C126       -4.4330  -10.4050   -1.1880 ca        1 CNT      0.000000
    128 C127       -3.2450  -10.4050   -3.2450 ca        1 CNT      0.000000
    129 C128       -1.1880  -10.4050   -4.4330 ca        1 CNT      0.000000
    130 C129        1.1880  -10.4050   -4.4330 ca        1 CNT      0.000000
    131 C130        3.2450  -10.4050   -3.2450 ca        1 CNT      0.000000
    132 C131        4.4330  -10.4050   -1.1880 ca        1 CNT      0.000000
    133 C132        4.5890  -11.0990    0.0000 ca        1 CNT      0.000000
    134 C133        3.9750  -11.0990    2.2950 ca        1 CNT      0.000000
    135 C134        2.2950  -11.0990    3.9750 ca        1 CNT      0.000000
    136 C135        0.0000  -11.0990    4.5890 ca        1 CNT      0.000000
    137 C136       -2.2950  -11.0990    3.9750 ca        1 CNT      0.000000
    138 C137       -3.9750  -11.0990    2.2950 ca        1 CNT      0.000000
    139 C138       -4.5890  -11.0990    0.0000 ca        1 CNT      0.000000
    140 C139       -3.9750  -11.0990   -2.2950 ca        1 CNT      0.000000
    141 C140       -2.2950  -11.0990   -3.9750 ca        1 CNT      0.000000
    142 C141       -0.0000  -11.0990   -4.5890 ca        1 CNT      0.000000
    143 C142        2.2950  -11.0990   -3.9750 ca        1 CNT      0.000000
    144 C143        3.9750  -11.0990   -2.2950 ca        1 CNT      0.000000
    145 C144        4.5890  -12.4870    0.0000 ca        1 CNT      0.000000
    146 C145        3.9750  -12.4870    2.2950 ca        1 CNT      0.000000
    147 C146        2.2950  -12.4870    3.9750 ca        1 CNT      0.000000
    148 C147        0.0000  -12.4870    4.5890 ca        1 CNT      0.000000
    149 C148       -2.2950  -12.4870    3.9750 ca        1 CNT      0.000000
    150 C149       -3.9750  -12.4870    2.2950 ca        1 CNT      0.000000
    151 C150       -4.5890  -12.4870    0.0000 ca        1 CNT      0.000000
    152 C151       -3.9750  -12.4870   -2.2950 ca        1 CNT      0.000000
    153 C152       -2.2950  -12.4870   -3.9750 ca        1 CNT      0.000000
    154 C153       -0.0000  -12.4870   -4.5890 ca        1 CNT      0.000000
    155 C154        2.2950  -12.4870   -3.9750 ca        1 CNT      0.000000
    156 C155        3.9750  -12.4870   -2.2950 ca        1 CNT      0.000000
    157 C156        4.4330  -13.1800    1.1880 ca        1 CNT      0.000000
    158 C157        3.2450  -13.1800    3.2450 ca        1 CNT      0.000000
    159 C158        1.1880  -13.1800    4.4330 ca        1 CNT      0.000000
    160 C159       -1.1880  -13.1800    4.4330 ca        1 CNT      0.000000
    161 C160       -3.2450  -13.1800    3.2450 ca        1 CNT      0.000000
    162 C161       -4.4330  -13.1800    1.1880 ca        1 CNT      0.000000
    163 C162       -4.4330  -13.1800   -1.1880 ca        1 CNT      0.000000
    164 C163       -3.2450  -13.1800   -3.2450 ca        1 CNT      0.000000
    165 C164       -1.1880  -13.1800   -4.4330 ca        1 CNT      0.000000
    166 C165        1.1880  -13.1800   -4.4330 ca        1 CNT      0.000000
    167 C166        3.2450  -13.1800   -3.2450 ca        1 CNT      0.000000
    168 C167        4.4330  -13.1800   -1.1880 ca        1 CNT      0.000000
    169 C168        4.4330  -14.5680    1.1880 ca        1 CNT      0.000000
    170 C169        3.2450  -14.5680    3.2450 ca        1 CNT      0.000000
    171 C170        1.1880  -14.5680    4.4330 ca        1 CNT      0.000000
    172 C171       -1.1880  -14.5680    4.4330 ca        1 CNT      0.000000
    173 C172       -3.2450  -14.5680    3.2450 ca        1 CNT      0.000000
    174 C173       -4.4330  -14.5680    1.1880 ca        1 CNT      0.000000
    175 C174       -4.4330  -14.5680   -1.1880 ca        1 CNT      0.000000
    176 C175       -3.2450  -14.5680   -3.2450 ca        1 CNT      0.000000
    177 C176       -1.1880  -14.5680   -4.4330 ca        1 CNT      0.000000
    178 C177        1.1880  -14.5680   -4.4330 ca        1 CNT      0.000000
    179 C178        3.2450  -14.5680   -3.2450 ca        1 CNT      0.000000
    180 C179        4.4330  -14.5680   -1.1880 ca        1 CNT      0.000000
    181 C180        4.5890  -15.2610    0.0000 ca        1 CNT      0.000000
    182 C181        3.9750  -15.2610    2.2950 ca        1 CNT      0.000000
    183 C182        2.2950  -15.2610    3.9750 ca        1 CNT      0.000000
    184 C183        0.0000  -15.2610    4.5890 ca        1 CNT      0.000000
    185 C184       -2.2950  -15.2610    3.9750 ca        1 CNT      0.000000
    186 C185       -3.9750  -15.2610    2.2950 ca        1 CNT      0.000000
    187 C186       -4.5890  -15.2610    0.0000 ca        1 CNT      0.000000
    188 C187       -3.9750  -15.2610   -2.2950 ca        1 CNT      0.000000
    189 C188       -2.2950  -15.2610   -3.9750 ca        1 CNT      0.000000
    190 C189       -0.0000  -15.2610   -4.5890 ca        1 CNT      0.000000
    191 C190        2.2950  -15.2610   -3.9750 ca        1 CNT      0.000000
    192 C191        3.9750  -15.2610   -2.2950 ca        1 CNT      0.000000
    193 C192        4.5890  -16.6490    0.0000 ca        1 CNT      0.000000
    194 C193        3.9750  -16.6490    2.2950 ca        1 CNT      0.000000
    195 C194        2.2950  -16.6490    3.9750 ca        1 CNT      0.000000
    196 C195        0.0000  -16.6490    4.5890 ca        1 CNT      0.000000
    197 C196       -2.2950  -16.6490    3.9750 ca        1 CNT      0.000000
    198 C197       -3.9750  -16.6490    2.2950 ca        1 CNT      0.000000
    199 C198       -4.5890  -16.6490    0.0000 ca        1 CNT      0.000000
    200 C199       -3.9750  -16.6490   -2.2950 ca        1 CNT      0.000000
    201 C200       -2.2950  -16.6490   -3.9750 ca        1 CNT      0.000000
    202 C201       -0.0000  -16.6490   -4.5890 ca        1 CNT      0.000000
    203 C202        2.2950  -16.6490   -3.9750 ca        1 CNT      0.000000
    204 C203        3.9750  -16.6490   -2.2950 ca        1 CNT      0.000000
    205 C204        4.4330  -17.3420    1.1880 ca        1 CNT      0.000000
    206 C205        3.2450  -17.3420    3.2450 ca        1 CNT      0.000000
    207 C206        1.1880  -17.3420    4.4330 ca        1 CNT      0.000000
    208 C207       -1.1880  -17.3420    4.4330 ca        1 CNT      0.000000
    209 C208       -3.2450  -17.3420    3.2450 ca        1 CNT      0.000000
    210 C209       -4.4330  -17.3420    1.1880 ca        1 CNT      0.000000
    211 C210       -4.4330  -17.3420   -1.1880 ca        1 CNT      0.000000
    212 C211       -3.2450  -17.3420   -3.2450 ca        1 CNT      0.000000
    213 C212       -1.1880  -17.3420   -4.4330 ca        1 CNT      0.000000
    214 C213        1.1880  -17.3420   -4.4330 ca        1 CNT      0.000000
    215 C214        3.2450  -17.3420   -3.2450 ca        1 CNT      0.000000
    216 C215        4.4330  -17.3420   -1.1880 ca        1 CNT      0.000000
    217 C216        4.4330  -18.7300    1.1880 ca        1 CNT      0.000000
    218 C217        3.2450  -18.7300    3.2450 ca        1 CNT      0.000000
    219 C218        1.1880  -18.7300    4.4330 ca        1 CNT      0.000000
    220 C219       -1.1880  -18.7300    4.4330 ca        1 CNT      0.000000
    221 C220       -3.2450  -18.7300    3.2450 ca        1 CNT      0.000000
    222 C221       -4.4330  -18.7300    1.1880 ca        1 CNT      0.000000
    223 C222       -4.4330  -18.7300   -1.1880 ca        1 CNT      0.000000
    224 C223       -3.2450  -18.7300   -3.2450 ca        1 CNT      0.000000
    225 C224       -1.1880  -18.7300   -4.4330 ca        1 CNT      0.000000
    226 C225        1.1880  -18.7300   -4.4330 ca        1 CNT      0.000000
    227 C226        3.2450  -18.7300   -3.2450 ca        1 CNT      0.000000
    228 C227        4.4330  -18.7300   -1.1880 ca        1 CNT      0.000000
    229 C228        4.5890  -19.4240    0.0000 ca        1 CNT      0.000000
    230 C229        3.9750  -19.4240    2.2950 ca        1 CNT      0.000000
    231 C230        2.2950  -19.4240    3.9750 ca        1 CNT      0.000000
    232 C231        0.0000  -19.4240    4.5890 ca        1 CNT      0.000000
    233 C232       -2.2950  -19.4240    3.9750 ca        1 CNT      0.000000
    234 C233       -3.9750  -19.4240    2.2950 ca        1 CNT      0.000000
    235 C234       -4.5890  -19.4240    0.0000 ca        1 CNT      0.000000
    236 C235       -3.9750  -19.4240   -2.2950 ca        1 CNT      0.000000
    237 C236       -2.2950  -19.4240   -3.9750 ca        1 CNT      0.000000
    238 C237       -0.0000  -19.4240   -4.5890 ca        1 CNT      0.000000
    239 C238        2.2950  -19.4240   -3.9750 ca        1 CNT      0.000000
    240 C239        3.9750  -19.4240   -2.2950 ca        1 CNT      0.000000
    241 C240        4.5890  -20.8110    0.0000 ca        1 CNT      0.000000
    242 C241        3.9750  -20.8110    2.2950 ca        1 CNT      0.000000
    243 C242        2.2950  -20.8110    3.9750 ca        1 CNT      0.000000
    244 C243        0.0000  -20.8110    4.5890 ca        1 CNT      0.000000
    245 C244       -2.2950  -20.8110    3.9750 ca        1 CNT      0.000000
    246 C245       -3.9750  -20.8110    2.2950 ca        1 CNT      0.000000
    247 C246       -4.5890  -20.8110    0.0000 ca        1 CNT      0.000000
    248 C247       -3.9750  -20.8110   -2.2950 ca        1 CNT      0.000000
    249 C248       -2.2950  -20.8110   -3.9750 ca        1 CNT      0.000000
    250 C249       -0.0000  -20.8110   -4.5890 ca        1 CNT      0.000000
    251 C250        2.2950  -20.8110   -3.9750 ca        1 CNT      0.000000
    252 C251        3.9750  -20.8110   -2.2950 ca        1 CNT      0.000000
    253 C252        4.4330  -21.5050    1.1880 ca        1 CNT      0.000000
    254 C253        3.2450  -21.5050    3.2450 ca        1 CNT      0.000000
    255 C254        1.1880  -21.5050    4.4330 ca        1 CNT      0.000000
    256 C255       -1.1880  -21.5050    4.4330 ca        1 CNT      0.000000
    257 C256       -3.2450  -21.5050    3.2450 ca        1 CNT      0.000000
    258 C257       -4.4330  -21.5050    1.1880 ca        1 CNT      0.000000
    259 C258       -4.4330  -21.5050   -1.1880 ca        1 CNT      0.000000
    260 C259       -3.2450  -21.5050   -3.2450 ca        1 CNT      0.000000
    261 C260       -1.1880  -21.5050   -4.4330 ca        1 CNT      0.000000
    262 C261        1.1880  -21.5050   -4.4330 ca        1 CNT      0.000000
    263 C262        3.2450  -21.5050   -3.2450 ca        1 CNT      0.000000
    264 C263        4.4330  -21.5050   -1.1880 ca        1 CNT      0.000000
    265 C264        4.4330  -22.8920    1.1880 ca        1 CNT      0.000000
    266 C265        3.2450  -22.8920    3.2450 ca        1 CNT      0.000000
    267 C266        1.1880  -22.8920    4.4330 ca        1 CNT      0.000000
    268 C267       -1.1880  -22.8920    4.4330 ca        1 CNT      0.000000
    269 C268       -3.2450  -22.8920    3.2450 ca        1 CNT      0.000000
    270 C269       -4.4330  -22.8920    1.1880 ca        1 CNT      0.000000
    271 C270       -4.4330  -22.8920   -1.1880 ca        1 CNT      0.000000
    272 C271       -3.2450  -22.8920   -3.2450 ca        1 CNT      0.000000
    273 C272       -1.1880  -22.8920   -4.4330 ca        1 CNT      0.000000
    274 C273        1.1880  -22.8920   -4.4330 ca        1 CNT      0.000000
    275 C274        3.2450  -22.8920   -3.2450 ca        1 CNT      0.000000
    276 C275        4.4330  -22.8920   -1.1880 ca        1 CNT      0.000000
    277 C276        4.5890  -23.5860    0.0000 ca        1 CNT      0.000000
    278 C277        3.9750  -23.5860    2.2950 ca        1 CNT      0.000000
    279 C278        2.2950  -23.5860    3.9750 ca        1 CNT      0.000000
    280 C279        0.0000  -23.5860    4.5890 ca        1 CNT      0.000000
    281 C280       -2.2950  -23.5860    3.9750 ca        1 CNT      0.000000
    282 C281       -3.9750  -23.5860    2.2950 ca        1 CNT      0.000000
    283 C282       -4.5890  -23.5860    0.0000 ca        1 CNT      0.000000
    284 C283       -3.9750  -23.5860   -2.2950 ca        1 CNT      0.000000
    285 C284       -2.2950  -23.5860   -3.9750 ca        1 CNT      0.000000
    286 C285       -0.0000  -23.5860   -4.5890 ca        1 CNT      0.000000
    287 C286        2.2950  -23.5860   -3.9750 ca        1 CNT      0.000000
    288 C287        3.9750  -23.5860   -2.2950 ca        1 CNT      0.000000
    289 C288        4.5890  -24.9730    0.0000 ca        1 CNT      0.000000
    290 C289        3.9750  -24.9730    2.2950 ca        1 CNT      0.000000
    291 C290        2.2950  -24.9730    3.9750 ca        1 CNT      0.000000
    292 C291        0.0000  -24.9730    4.5890 ca        1 CNT      0.000000
    293 C292       -2.2950  -24.9730    3.9750 ca        1 CNT      0.000000
    294 C293       -3.9750  -24.9730    2.2950 ca        1 CNT      0.000000
    295 C294       -4.5890  -24.9730    0.0000 ca        1 CNT      0.000000
    296 C295       -3.9750  -24.9730   -2.2950 ca        1 CNT      0.000000
    297 C296       -2.2950  -24.9730   -3.9750 ca        1 CNT      0.000000
    298 C297       -0.0000  -24.9730   -4.5890 ca        1 CNT      0.000000
    299 C298        2.2950  -24.9730   -3.9750 ca        1 CNT      0.000000
    300 C299        3.9750  -24.9730   -2.2950 ca        1 CNT      0.000000
    301 C300        4.4330  -25.6670    1.1880 ca        1 CNT      0.000000
    302 C301        3.2450  -25.6670    3.2450 ca        1 CNT      0.000000
    303 C302        1.1880  -25.6670    4.4330 ca        1 CNT      0.000000
    304 C303       -1.1880  -25.6670    4.4330 ca        1 CNT      0.000000
    305 C304       -3.2450  -25.6670    3.2450 ca        1 CNT      0.000000
    306 C305       -4.4330  -25.6670    1.1880 ca        1 CNT      0.000000
    307 C306       -4.4330  -25.6670   -1.1880 ca        1 CNT      0.000000
    308 C307       -3.2450  -25.6670   -3.2450 ca        1 CNT      0.000000
    309 C308       -1.1880  -25.6670   -4.4330 ca        1 CNT      0.000000
    310 C309        1.1880  -25.6670   -4.4330 ca        1 CNT      0.000000
    311 C310        3.2450  -25.6670   -3.2450 ca        1 CNT      0.000000
    312 C311        4.4330  -25.6670   -1.1880 ca        1 CNT      0.000000
    313 C312        4.4330  -27.0540    1.1880 ca        1 CNT      0.000000
    314 C313        3.2450  -27.0540    3.2450 ca        1 CNT      0.000000
    315 C314        1.1880  -27.0540    4.4330 ca        1 CNT      0.000000
    316 C315       -1.1880  -27.0540    4.4330 ca        1 CNT      0.000000
    317 C316       -3.2450  -27.0540    3.2450 ca        1 CNT      0.000000
    318 C317       -4.4330  -27.0540    1.1880 ca        1 CNT      0.000000
    319 C318       -4.4330  -27.0540   -1.1880 ca        1 CNT      0.000000
    320 C319       -3.2450  -27.0540   -3.2450 ca        1 CNT      0.000000
    321 C320       -1.1880  -27.0540   -4.4330 ca        1 CNT      0.000000
    322 C321        1.1880  -27.0540   -4.4330 ca        1 CNT      0.000000
    323 C322        3.2450  -27.0540   -3.2450 ca        1 CNT      0.000000
    324 C323        4.4330  -27.0540   -1.1880 ca        1 CNT      0.000000
    325 C324        4.5890  -27.7480    0.0000 ca        1 CNT      0.000000
    326 C325        3.9750  -27.7480    2.2950 ca        1 CNT      0.000000
    327 C326        2.2950  -27.7480    3.9750 ca        1 CNT      0.000000
    328 C327        0.0000  -27.7480    4.5890 ca        1 CNT      0.000000
    329 C328       -2.2950  -27.7480    3.9750 ca        1 CNT      0.000000
    330 C329       -3.9750  -27.7480    2.2950 ca        1 CNT      0.000000
    331 C330       -4.5890  -27.7480    0.0000 ca        1 CNT      0.000000
    332 C331       -3.9750  -27.7480   -2.2950 ca        1 CNT      0.000000
    333 C332       -2.2950  -27.7480   -3.9750 ca        1 CNT      0.000000
    334 C333       -0.0000  -27.7480   -4.5890 ca        1 CNT      0.000000
    335 C334        2.2950  -27.7480   -3.9750 ca        1 CNT      0.000000
    336 C335        3.9750  -27.7480   -2.2950 ca        1 CNT      0.000000
    337 C336        4.5890  -29.1350    0.0000 ca        1 CNT      0.000000
    338 C337        3.9750  -29.1350    2.2950 ca        1 CNT      0.000000
    339 C338        2.2950  -29.1350    3.9750 ca        1 CNT      0.000000
    340 C339        0.0000  -29.1350    4.5890 ca        1 CNT      0.000000
    341 C340       -2.2950  -29.1350    3.9750 ca        1 CNT      0.000000
    342 C341       -3.9750  -29.1350    2.2950 ca        1 CNT      0.000000
    343 C342       -4.5890  -29.1350    0.0000 ca        1 CNT      0.000000
    344 C343       -3.9750  -29.1350   -2.2950 ca        1 CNT      0.000000
    345 C344       -2.2950  -29.1350   -3.9750 ca        1 CNT      0.000000
    346 C345       -0.0000  -29.1350   -4.5890 ca        1 CNT      0.000000
    347 C346        2.2950  -29.1350   -3.9750 ca        1 CNT      0.000000
    348 C347        3.9750  -29.1350   -2.2950 ca        1 CNT      0.000000
    349 C348        4.4330  -29.8290    1.1880 ca        1 CNT      0.000000
    350 C349        3.2450  -29.8290    3.2450 ca        1 CNT      0.000000
    351 C350        1.1880  -29.8290    4.4330 ca        1 CNT      0.000000
    352 C351       -1.1880  -29.8290    4.4330 ca        1 CNT      0.000000
    353 C352       -3.2450  -29.8290    3.2450 ca        1 CNT      0.000000
    354 C353       -4.4330  -29.8290    1.1880 ca        1 CNT      0.000000
    355 C354       -4.4330  -29.8290   -1.1880 ca        1 CNT      0.000000
    356 C355       -3.2450  -29.8290   -3.2450 ca        1 CNT      0.000000
    357 C356       -1.1880  -29.8290   -4.4330 ca        1 CNT      0.000000
    358 C357        1.1880  -29.8290   -4.4330 ca        1 CNT      0.000000
    359 C358        3.2450  -29.8290   -3.2450 ca        1 CNT      0.000000
    360 C359        4.4330  -29.8290   -1.1880 ca        1 CNT      0.000000
    361 C360        4.4330  -31.2160    1.1880 ca        1 CNT      0.000000
    362 C361        3.2450  -31.2160    3.2450 ca        1 CNT      0.000000
    363 C362        1.1880  -31.2160    4.4330 ca        1 CNT      0.000000
    364 C363       -1.1880  -31.2160    4.4330 ca        1 CNT      0.000000
    365 C364       -3.2450  -31.2160    3.2450 ca        1 CNT      0.000000
    366 C365       -4.4330  -31.2160    1.1880 ca        1 CNT      0.000000
    367 C366       -4.4330  -31.2160   -1.1880 ca        1 CNT      0.000000
    368 C367       -3.2450  -31.2160   -3.2450 ca        1 CNT      0.000000
    369 C368       -1.1880  -31.2160   -4.4330 ca        1 CNT      0.000000
    370 C369        1.1880  -31.2160   -4.4330 ca        1 CNT      0.000000
    371 C370        3.2450  -31.2160   -3.2450 ca        1 CNT      0.000000
    372 C371        4.4330  -31.2160   -1.1880 ca        1 CNT      0.000000
    373 C372        4.5890  -31.9100    0.0000 ca        1 CNT      0.000000
    374 C373        3.9750  -31.9100    2.2950 ca        1 CNT      0.000000
    375 C374        2.2950  -31.9100    3.9750 ca        1 CNT      0.000000
    376 C375        0.0000  -31.9100    4.5890 ca        1 CNT      0.000000
    377 C376       -2.2950  -31.9100    3.9750 ca        1 CNT      0.000000
    378 C377       -3.9750  -31.9100    2.2950 ca        1 CNT      0.000000
    379 C378       -4.5890  -31.9100    0.0000 ca        1 CNT      0.000000
    380 C379       -3.9750  -31.9100   -2.2950 ca        1 CNT      0.000000
    381 C380       -2.2950  -31.9100   -3.9750 ca        1 CNT      0.000000
    382 C381       -0.0000  -31.9100   -4.5890 ca        1 CNT      0.000000
    383 C382        2.2950  -31.9100   -3.9750 ca        1 CNT      0.000000
    384 C383        3.9750  -31.9100   -2.2950 ca        1 CNT      0.000000
    385 C384        4.5890  -33.2980    0.0000 ca        1 CNT      0.000000
    386 C385        3.9750  -33.2980    2.2950 ca        1 CNT      0.000000
    387 C386        2.2950  -33.2980    3.9750 ca        1 CNT      0.000000
    388 C387        0.0000  -33.2980    4.5890 ca        1 CNT      0.000000
    389 C388       -2.2950  -33.2980    3.9750 ca        1 CNT      0.000000
    390 C389       -3.9750  -33.2980    2.2950 ca        1 CNT      0.000000
    391 C390       -4.5890  -33.2980    0.0000 ca        1 CNT      0.000000
    392 C391       -3.9750  -33.2980   -2.2950 ca        1 CNT      0.000000
    393 C392       -2.2950  -33.2980   -3.9750 ca        1 CNT      0.000000
    394 C393       -0.0000  -33.2980   -4.5890 ca        1 CNT      0.000000
    395 C394        2.2950  -33.2980   -3.9750 ca        1 CNT      0.000000
    396 C395        3.9750  -33.2980   -2.2950 ca        1 CNT      0.000000
    397 C396        4.4330  -33.9910    1.1880 ca        1 CNT      0.000000
    398 C397        3.2450  -33.9910    3.2450 ca        1 CNT      0.000000
    399 C398        1.1880  -33.9910    4.4330 ca        1 CNT      0.000000
    400 C399       -1.1880  -33.9910    4.4330 ca        1 CNT      0.000000
    401 C400       -3.2450  -33.9910    3.2450 ca        1 CNT      0.000000
    402 C401       -4.4330  -33.9910    1.1880 ca        1 CNT      0.000000
    403 C402       -4.4330  -33.9910   -1.1880 ca        1 CNT      0.000000
    404 C403       -3.2450  -33.9910   -3.2450 ca        1 CNT      0.000000
    405 C404       -1.1880  -33.9910   -4.4330 ca        1 CNT      0.000000
    406 C405        1.1880  -33.9910   -4.4330 ca        1 CNT      0.000000
    407 C406        3.2450  -33.9910   -3.2450 ca        1 CNT      0.000000
    408 C407        4.4330  -33.9910   -1.1880 ca        1 CNT      0.000000
    409 C408        4.4330  -35.3790    1.1880 ca        1 CNT      0.000000
    410 C409        3.2450  -35.3790    3.2450 ca        1 CNT      0.000000
    411 C410        1.1880  -35.3790    4.4330 ca        1 CNT      0.000000
    412 C411       -1.1880  -35.3790    4.4330 ca        1 CNT      0.000000
    413 C412       -3.2450  -35.3790    3.2450 ca        1 CNT      0.000000
    414 C413       -4.4330  -35.3790    1.1880 ca        1 CNT      0.000000
    415 C414       -4.4330  -35.3790   -1.1880 ca        1 CNT      0.000000
    416 C415       -3.2450  -35.3790   -3.2450 ca        1 CNT      0.000000
    417 C416       -1.1880  -35.3790   -4.4330 ca        1 CNT      0.000000
    418 C417        1.1880  -35.3790   -4.4330 ca        1 CNT      0.000000
    419 C418        3.2450  -35.3790   -3.2450 ca        1 CNT      0.000000
    420 C419        4.4330  -35.3790   -1.1880 ca        1 CNT      0.000000
    421 C420        4.5890  -36.0720    0.0000 ca        1 CNT      0.000000
    422 C421        3.9750  -36.0720    2.2950 ca        1 CNT      0.000000
    423 C422        2.2950  -36.0720    3.9750 ca        1 CNT      0.000000
    424 C423        0.0000  -36.0720    4.5890 ca        1 CNT      0.000000
    425 C424       -2.2950  -36.0720    3.9750 ca        1 CNT      0.000000
    426 C425       -3.9750  -36.0720    2.2950 ca        1 CNT      0.000000
    427 C426       -4.5890  -36.0720    0.0000 ca        1 CNT      0.000000
    428 C427       -3.9750  -36.0720   -2.2950 ca        1 CNT      0.000000
    429 C428       -2.2950  -36.0720   -3.9750 ca        1 CNT      0.000000
    430 C429       -0.0000  -36.0720   -4.5890 ca        1 CNT      0.000000
    431 C430        2.2950  -36.0720   -3.9750 ca        1 CNT      0.000000
    432 C431        3.9750  -36.0720   -2.2950 ca        1 CNT      0.000000
    433 C432        4.5890  -37.4600    0.0000 ca        1 CNT      0.000000
    434 C433        3.9750  -37.4600    2.2950 ca        1 CNT      0.000000
    435 C434        2.2950  -37.4600    3.9750 ca        1 CNT      0.000000
    436 C435        0.0000  -37.4600    4.5890 ca        1 CNT      0.000000
    437 C436       -2.2950  -37.4600    3.9750 ca        1 CNT      0.000000
    438 C437       -3.9750  -37.4600    2.2950 ca        1 CNT      0.000000
    439 C438       -4.5890  -37.4600    0.0000 ca        1 CNT      0.000000
    440 C439       -3.9750  -37.4600   -2.2950 ca        1 CNT      0.000000
    441 C440       -2.2950  -37.4600   -3.9750 ca        1 CNT      0.000000
    442 C441       -0.0000  -37.4600   -4.5890 ca        1 CNT      0.000000
    443 C442        2.2950  -37.4600   -3.9750 ca        1 CNT      0.000000
    444 C443        3.9750  -37.4600   -2.2950 ca        1 CNT      0.000000
    445 C444        4.4330  -38.1530    1.1880 ca        1 CNT      0.000000
    446 C445        3.2450  -38.1530    3.2450 ca        1 CNT      0.000000
    447 C446        1.1880  -38.1530    4.4330 ca        1 CNT      0.000000
    448 C447       -1.1880  -38.1530    4.4330 ca        1 CNT      0.000000
    449 C448       -3.2450  -38.1530    3.2450 ca        1 CNT      0.000000
    450 C449       -4.4330  -38.1530    1.1880 ca        1 CNT      0.000000
    451 C450       -4.4330  -38.1530   -1.1880 ca        1 CNT      0.000000
    452 C451       -3.2450  -38.1530   -3.2450 ca        1 CNT      0.000000
    453 C452       -1.1880  -38.1530   -4.4330 ca        1 CNT      0.000000
    454 C453        1.1880  -38.1530   -4.4330 ca        1 CNT      0.000000
    455 C454        3.2450  -38.1530   -3.2450 ca        1 CNT      0.000000
    456 C455        4.4330  -38.1530   -1.1880 ca        1 CNT      0.000000
    457 C456        4.4330  -39.5410    1.1880 ca        1 CNT      0.000000
    458 C457        3.2450  -39.5410    3.2450 ca        1 CNT      0.000000
    459 C458        1.1880  -39.5410    4.4330 ca        1 CNT      0.000000
    460 C459       -1.1880  -39.5410    4.4330 ca        1 CNT      0.000000
    461 C460       -3.2450  -39.5410    3.2450 ca        1 CNT      0.000000
    462 C461       -4.4330  -39.5410    1.1880 ca        1 CNT      0.000000
    463 C462       -4.4330  -39.5410   -1.1880 ca        1 CNT      0.000000
    464 C463       -3.2450  -39.5410   -3.2450 ca        1 CNT      0.000000
    465 C464       -1.1880  -39.5410   -4.4330 ca        1 CNT      0.000000
    466 C465        1.1880  -39.5410   -4.4330 ca        1 CNT      0.000000
    467 C466        3.2450  -39.5410   -3.2450 ca        1 CNT      0.000000
    468 C467        4.4330  -39.5410   -1.1880 ca        1 CNT      0.000000
    469 C468        4.5890  -40.2350    0.0000 ca        1 CNT      0.000000
    470 C469        3.9750  -40.2350    2.2950 ca        1 CNT      0.000000
    471 C470        2.2950  -40.2350    3.9750 ca        1 CNT      0.000000
    472 C471        0.0000  -40.2350    4.5890 ca        1 CNT      0.000000
    473 C472       -2.2950  -40.2350    3.9750 ca        1 CNT      0.000000
    474 C473       -3.9750  -40.2350    2.2950 ca        1 CNT      0.000000
    475 C474       -4.5890  -40.2350    0.0000 ca        1 CNT      0.000000
    476 C475       -3.9750  -40.2350   -2.2950 ca        1 CNT      0.000000
    477 C476       -2.2950  -40.2350   -3.9750 ca        1 CNT      0.000000
    478 C477       -0.0000  -40.2350   -4.5890 ca        1 CNT      0.000000
    479 C478        2.2950  -40.2350   -3.9750 ca        1 CNT      0.000000
    480 C479        3.9750  -40.2350   -2.2950 ca        1 CNT      0.000000
    481 C480        4.5890  -41.6220    0.0000 ca        1 CNT      0.000000
    482 C481        3.9750  -41.6220    2.2950 ca        1 CNT      0.000000
    483 C482        2.2950  -41.6220    3.9750 ca        1 CNT      0.000000
    484 C483        0.0000  -41.6220    4.5890 ca        1 CNT      0.000000
    485 C484       -2.2950  -41.6220    3.9750 ca        1 CNT      0.000000
    486 C485       -3.9750  -41.6220    2.2950 ca        1 CNT      0.000000
    487 C486       -4.5890  -41.6220    0.0000 ca        1 CNT      0.000000
    488 C487       -3.9750  -41.6220   -2.2950 ca        1 CNT      0.000000
    489 C488       -2.2950  -41.6220   -3.9750 ca        1 CNT      0.000000
    490 C489       -0.0000  -41.6220   -4.5890 ca        1 CNT      0.000000
    491 C490        2.2950  -41.6220   -3.9750 ca        1 CNT      0.000000
    492 C491        3.9750  -41.6220   -2.2950 ca        1 CNT      0.000000
    493 C492        4.4330  -42.3160    1.1880 ca        1 CNT      0.000000
    494 C493        3.2450  -42.3160    3.2450 ca        1 CNT      0.000000
    495 C494        1.1880  -42.3160    4.4330 ca        1 CNT      0.000000
    496 C495       -1.1880  -42.3160    4.4330 ca        1 CNT      0.000000
    497 C496       -3.2450  -42.3160    3.2450 ca        1 CNT      0.000000
    498 C497       -4.4330  -42.3160    1.1880 ca        1 CNT      0.000000
    499 C498       -4.4330  -42.3160   -1.1880 ca        1 CNT      0.000000
    500 C499       -3.2450  -42.3160   -3.2450 ca        1 CNT      0.000000
    501 C500       -1.1880  -42.3160   -4.4330 ca        1 CNT      0.000000
    502 C501        1.1880  -42.3160   -4.4330 ca        1 CNT      0.000000
    503 C502        3.2450  -42.3160   -3.2450 ca        1 CNT      0.000000
    504 C503        4.4330  -42.3160   -1.1880 ca        1 CNT      0.000000
    505 C504        4.4330  -43.7030    1.1880 ca        1 CNT      0.000000
    506 C505        3.2450  -43.7030    3.2450 ca        1 CNT      0.000000
    507 C506        1.1880  -43.7030    4.4330 ca        1 CNT      0.000000
    508 C507       -1.1880  -43.7030    4.4330 ca        1 CNT      0.000000
    509 C508       -3.2450  -43.7030    3.2450 ca        1 CNT      0.000000
    510 C509       -4.4330  -43.7030    1.1880 ca        1 CNT      0.000000
    511 C510       -4.4330  -43.7030   -1.1880 ca        1 CNT      0.000000
    512 C511       -3.2450  -43.7030   -3.2450 ca        1 CNT      0.000000
    513 C512       -1.1880  -43.7030   -4.4330 ca        1 CNT      0.000000
    514 C513        1.1880  -43.7030   -4.4330 ca        1 CNT      0.000000
    515 C514        3.2450  -43.7030   -3.2450 ca        1 CNT      0.000000
    516 C515        4.4330  -43.7030   -1.1880 ca        1 CNT      0.000000
    517 C516        4.5890  -44.3970    0.0000 ca        1 CNT      0.000000
    518 C517        3.9750  -44.3970    2.2950 ca        1 CNT      0.000000
    519 C518        2.2950  -44.3970    3.9750 ca        1 CNT      0.000000
    520 C519        0.0000  -44.3970    4.5890 ca        1 CNT      0.000000
    521 C520       -2.2950  -44.3970    3.9750 ca        1 CNT      0.000000
    522 C521       -3.9750  -44.3970    2.2950 ca        1 CNT      0.000000
    523 C522       -4.5890  -44.3970    0.0000 ca        1 CNT      0.000000
    524 C523       -3.9750  -44.3970   -2.2950 ca        1 CNT      0.000000
    525 C524       -2.2950  -44.3970   -3.9750 ca        1 CNT      0.000000
    526 C525       -0.0000  -44.3970   -4.5890 ca        1 CNT      0.000000
    527 C526        2.2950  -44.3970   -3.9750 ca        1 CNT      0.000000
    528 C527        3.9750  -44.3970   -2.2950 ca        1 CNT      0.000000
    529 C528        4.5890  -45.7840    0.0000 ca        1 CNT      0.000000
    530 C529        3.9750  -45.7840    2.2950 ca        1 CNT      0.000000
    531 C530        2.2950  -45.7840    3.9750 ca        1 CNT      0.000000
    532 C531        0.0000  -45.7840    4.5890 ca        1 CNT      0.000000
    533 C532       -2.2950  -45.7840    3.9750 ca        1 CNT      0.000000
    534 C533       -3.9750  -45.7840    2.2950 ca        1 CNT      0.000000
    535 C534       -4.5890  -45.7840    0.0000 ca        1 CNT      0.000000
    536 C535       -3.9750  -45.7840   -2.2950 ca        1 CNT      0.000000
    537 C536       -2.2950  -45.7840   -3.9750 ca        1 CNT      0.000000
    538 C537       -0.0000  -45.7840   -4.5890 ca        1 CNT      0.000000
    539 C538        2.2950  -45.7840   -3.9750 ca        1 CNT      0.000000
    540 C539        3.9750  -45.7840   -2.2950 ca        1 CNT      0.000000
    541 C540        4.4330  -46.4780    1.1880 ca        1 CNT      0.000000
    542 C541        3.2450  -46.4780    3.2450 ca        1 CNT      0.000000
    543 C542        1.1880  -46.4780    4.4330 ca        1 CNT      0.000000
    544 C543       -1.1880  -46.4780    4.4330 ca        1 CNT      0.000000
    545 C544       -3.2450  -46.4780    3.2450 ca        1 CNT      0.000000
    546 C545       -4.4330  -46.4780    1.1880 ca        1 CNT      0.000000
    547 C546       -4.4330  -46.4780   -1.1880 ca        1 CNT      0.000000
    548 C547       -3.2450  -46.4780   -3.2450 ca        1 CNT      0.000000
    549 C548       -1.1880  -46.4780   -4.4330 ca        1 CNT      0.000000
    550 C549        1.1880  -46.4780   -4.4330 ca        1 CNT      0.000000
    551 C550        3.2450  -46.4780   -3.2450 ca        1 CNT      0.000000
    552 C551        4.4330  -46.4780   -1.1880 ca        1 CNT      0.000000
    553 C552        4.4330  -47.8650    1.1880 ca        1 CNT      0.140000
    554 C553        3.2450  -47.8650    3.2450 ca        1 CNT      0.140000
    555 C554        1.1880  -47.8650    4.4330 ca        1 CNT      0.140000
    556 C555       -1.1880  -47.8650    4.4330 ca        1 CNT      0.140000
    557 C556       -3.2450  -47.8650    3.2450 ca        1 CNT      0.140000
    558 C557       -4.4330  -47.8650    1.1880 ca        1 CNT      0.140000
    559 C558       -4.4330  -47.8650   -1.1880 ca        1 CNT      0.140000
    560 C559       -3.2450  -47.8650   -3.2450 ca        1 CNT      0.140000
    561 C560       -1.1880  -47.8650   -4.4330 ca        1 CNT      0.140000
    562 C561        1.1880  -47.8650   -4.4330 ca        1 CNT      0.140000
    563 C562        3.2450  -47.8650   -3.2450 ca        1 CNT      0.140000
    564 C563        4.4330  -47.8650   -1.1880 ca        1 CNT      0.140000
    565 C564        4.5890  -48.5590    0.0000 ca        1 CNT     -0.300000
    566 C565        3.9750  -48.5590    2.2950 ca        1 CNT     -0.300000
    567 C566        2.2950  -48.5590    3.9750 ca        1 CNT     -0.300000
    568 C567        0.0000  -48.5590    4.5890 ca        1 CNT     -0.300000
    569 C568       -2.2950  -48.5590    3.9750 ca        1 CNT     -0.300000
    570 C569       -3.9750  -48.5590    2.2950 ca        1 CNT     -0.300000
    571 C570       -4.5890  -48.5590    0.0000 ca        1 CNT     -0.300000
    572 C571       -3.9750  -48.5590   -2.2950 ca        1 CNT     -0.300000
    573 C572       -2.2950  -48.5590   -3.9750 ca        1 CNT     -0.300000
    574 C573       -0.0000  -48.5590   -4.5890 ca        1 CNT     -0.300000
    575 C574        2.2950  -48.5590   -3.9750 ca        1 CNT     -0.300000
    576 C575        3.9750  -48.5590   -2.2950 ca        1 CNT     -0.300000
    577 H           4.5890  -49.6490    0.0000 ha        1 CNT      0.160000
    578 H1          3.9750  -49.6490    2.2950 ha        1 CNT      0.160000
    579 H2          2.2950  -49.6490    3.9750 ha        1 CNT      0.160000
    580 H3          0.0000  -49.6490    4.5890 ha        1 CNT      0.160000
    581 H4         -2.2950  -49.6490    3.9750 ha        1 CNT      0.160000
    582 H5         -3.9750  -49.6490    2.2950 ha        1 CNT      0.160000
    583 H6         -4.5890  -49.6490    0.0000 ha        1 CNT      0.160000
    584 H7         -3.9750  -49.6490   -2.2950 ha        1 CNT      0.160000
    585 H8         -2.2950  -49.6490   -3.9750 ha        1 CNT      0.160000
    586 H9         -0.0000  -49.6490   -4.5890 ha        1 CNT      0.160000
    587 H10         2.2950  -49.6490   -3.9750 ha        1 CNT      0.160000
    588 H11         3.9750  -49.6490   -2.2950 ha        1 CNT      0.160000
    589 H12         4.5890    1.0900    0.0000 ha        1 CNT      0.160000
    590 H13         3.9750    1.0900    2.2950 ha        1 CNT      0.160000
    591 H14         2.2950    1.0900    3.9750 ha        1 CNT      0.160000
    592 H15         0.0000    1.0900    4.5890 ha        1 CNT      0.160000
    593 H16        -2.2950    1.0900    3.9750 ha        1 CNT      0.160000
    594 H17        -3.9750    1.0900    2.2950 ha        1 CNT      0.160000
    595 H18        -4.5890    1.0900    0.0000 ha        1 CNT      0.160000
    596 H19        -3.9750    1.0900   -2.2950 ha        1 CNT      0.160000
    597 H20        -2.2950    1.0900   -3.9750 ha        1 CNT      0.160000
    598 H21        -0.0000    1.0900   -4.5890 ha        1 CNT      0.160000
    599 H22         2.2950    1.0900   -3.9750 ha        1 CNT      0.160000
    600 H23         3.9750    1.0900   -2.2950 ha        1 CNT      0.160000
@<TRIPOS>BOND
     1    1   13 ar  
     2    1   24 ar  
     3    1  589 1   
     4    2   13 ar  
     5    2   14 ar  
     6    2  590 1   
     7    3   14 ar  
     8    3   15 ar  
     9    3  591 1   
    10    4   15 ar  
    11    4   16 ar  
    12    4  592 1   
    13    5   16 ar  
    14    5   17 ar  
    15    5  593 1   
    16    6   17 ar  
    17    6   18 ar  
    18    6  594 1   
    19    7   18 ar  
    20    7   19 ar  
    21    7  595 1   
    22    8   19 ar  
    23    8   20 ar  
    24    8  596 1   
    25    9   20 ar  
    26    9   21 ar  
    27    9  597 1   
    28   10   21 ar  
    29   10   22 ar  
    30   10  598 1   
    31   11   22 ar  
    32   11   23 ar  
    33   11  599 1   
    34   12   23 ar  
    35   12   24 ar  
    36   12  600 1   
    37   13   25 ar  
    38   14   26 ar  
    39   15   27 ar  
    40   16   28 ar  
    41   17   29 ar  
    42   18   30 ar  
    43   19   31 ar  
    44   20   32 ar  
    45   21   33 ar  
    46   22   34 ar  
    47   23   35 ar  
    48   24   36 ar  
    49   25   37 ar  
    50   25   38 ar  
    51   26   38 ar  
    52   26   39 ar  
    53   27   39 ar  
    54   27   40 ar  
    55   28   40 ar  
    56   28   41 ar  
    57   29   41 ar  
    58   29   42 ar  
    59   30   42 ar  
    60   30   43 ar  
    61   31   43 ar  
    62   31   44 ar  
    63   32   44 ar  
    64   32   45 ar  
    65   33   45 ar  
    66   33   46 ar  
    67   34   46 ar  
    68   34   47 ar  
    69   35   47 ar  
    70   35   48 ar  
    71   36   37 ar  
    72   36   48 ar  
    73   37   49 ar  
    74   38   50 ar  
    75   39   51 ar  
    76   40   52 ar  
    77   41   53 ar  
    78   42   54 ar  
    79   43   55 ar  
    80   44   56 ar  
    81   45   57 ar  
    82   46   58 ar  
    83   47   59 ar  
    84   48   60 ar  
    85   49   61 ar  
    86   49   72 ar  
    87   50   61 ar  
    88   50   62 ar  
    89   51   62 ar  
    90   51   63 ar  
    91   52   63 ar  
    92   52   64 ar  
    93   53   64 ar  
    94   53   65 ar  
    95   54   65 ar  
    96   54   66 ar  
    97   55   66 ar  
    98   55   67 ar  
    99   56   67 ar  
   100   56   68 ar  
   101   57   68 ar  
   102   57   69 ar  
   103   58   69 ar  
   104   58   70 ar  
   105   59   70 ar  
   106   59   71 ar  
   107   60   71 ar  
   108   60   72 ar  
   109   61   73 ar  
   110   62   74 ar  
   111   63   75 ar  
   112   64   76 ar  
   113   65   77 ar  
   114   66   78 ar  
   115   67   79 ar  
   116   68   80 ar  
   117   69   81 ar  
   118   70   82 ar  
   119   71   83 ar  
   120   72   84 ar  
   121   73   85 ar  
   122   73   86 ar  
   123   74   86 ar  
   124   74   87 ar  
   125   75   87 ar  
   126   75   88 ar  
   127   76   88 ar  
   128   76   89 ar  
   129   77   89 ar  
   130   77   90 ar  
   131   78   90 ar  
   132   78   91 ar  
   133   79   91 ar  
   134   79   92 ar  
   135   80   92 ar  
   136   80   93 ar  
   137   81   93 ar  
   138   81   94 ar  
   139   82   94 ar  
   140   82   95 ar  
   141   83   95 ar  
   142   83   96 ar  
   143   84   85 ar  
   144   84   96 ar  
   145   85   97 ar  
   146   86   98 ar  
   147   87   99 ar  
   148   88  100 ar  
   149   89  101 ar  
   150   90  102 ar  
   151   91  103 ar  
   152   92  104 ar  
   153   93  105 ar  
   154   94  106 ar  
   155   95  107 ar  
   156   96  108 ar  
   157   97  109 ar  
   158   97  120 ar  
   159   98  109 ar  
   160   98  110 ar  
   161   99  110 ar  
   162   99  111 ar  
   163  100  111 ar  
   164  100  112 ar  
   165  101  112 ar  
   166  101  113 ar  
   167  102  113 ar  
   168  102  114 ar  
   169  103  114 ar  
   170  103  115 ar  
   171  104  115 ar  
   172  104  116 ar  
   173  105  116 ar  
   174  105  117 ar  
   175  106  117 ar  
   176  106  118 ar  
   177  107  118 ar  
   178  107  119 ar  
   179  108  119 ar  
   180  108  120 ar  
   181  109  121 ar  
   182  110  122 ar  
   183  111  123 ar  
   184  112  124 ar  
   185  113  125 ar  
   186  114  126 ar  
   187  115  127 ar  
   188  116  128 ar  
   189  117  129 ar  
   190  118  130 ar  
   191  119  131 ar  
   192  120  132 ar  
   193  121  133 ar  
   194  121  134 ar  
   195  122  134 ar  
   196  122  135 ar  
   197  123  135 ar  
   198  123  136 ar  
   199  124  136 ar  
   200  124  137 ar  
   201  125  137 ar  
   202  125  138 ar  
   203  126  138 ar  
   204  126  139 ar  
   205  127  139 ar  
   206  127  140 ar  
   207  128  140 ar  
   208  128  141 ar  
   209  129  141 ar  
   210  129  142 ar  
   211  130  142 ar  
   212  130  143 ar  
   213  131  143 ar  
   214  131  144 ar  
   215  132  133 ar  
   216  132  144 ar  
   217  133  145 ar  
   218  134  146 ar  
   219  135  147 ar  
   220  136  148 ar  
   221  137  149 ar  
   222  138  150 ar  
   223  139  151 ar  
   224  140  152 ar  
   225  141  153 ar  
   226  142  154 ar  
   227  143  155 ar  
   228  144  156 ar  
   229  145  157 ar  
   230  145  168 ar  
   231  146  157 ar  
   232  146  158 ar  
   233  147  158 ar  
   234  147  159 ar  
   235  148  159 ar  
   236  148  160 ar  
   237  149  160 ar  
   238  149  161 ar  
   239  150  161 ar  
   240  150  162 ar  
   241  151  162 ar  
   242  151  163 ar  
   243  152  163 ar  
   244  152  164 ar  
   245  153  164 ar  
   246  153  165 ar  
   247  154  165 ar  
   248  154  166 ar  
   249  155  166 ar  
   250  155  167 ar  
   251  156  167 ar  
   252  156  168 ar  
   253  157  169 ar  
   254  158  170 ar  
   255  159  171 ar  
   256  160  172 ar  
   257  161  173 ar  
   258  162  174 ar  
   259  163  175 ar  
   260  164  176 ar  
   261  165  177 ar  
   262  166  178 ar  
   263  167  179 ar  
   264  168  180 ar  
   265  169  181 ar  
   266  169  182 ar  
   267  170  182 ar  
   268  170  183 ar  
   269  171  183 ar  
   270  171  184 ar  
   271  172  184 ar  
   272  172  185 ar  
   273  173  185 ar  
   274  173  186 ar  
   275  174  186 ar  
   276  174  187 ar  
   277  175  187 ar  
   278  175  188 ar  
   279  176  188 ar  
   280  176  189 ar  
   281  177  189 ar  
   282  177  190 ar  
   283  178  190 ar  
   284  178  191 ar  
   285  179  191 ar  
   286  179  192 ar  
   287  180  181 ar  
   288  180  192 ar  
   289  181  193 ar  
   290  182  194 ar  
   291  183  195 ar  
   292  184  196 ar  
   293  185  197 ar  
   294  186  198 ar  
   295  187  199 ar  
   296  188  200 ar  
   297  189  201 ar  
   298  190  202 ar  
   299  191  203 ar  
   300  192  204 ar  
   301  193  205 ar  
   302  193  216 ar  
   303  194  205 ar  
   304  194  206 ar  
   305  195  206 ar  
   306  195  207 ar  
   307  196  207 ar  
   308  196  208 ar  
   309  197  208 ar  
   310  197  209 ar  
   311  198  209 ar  
   312  198  210 ar  
   313  199  210 ar  
   314  199  211 ar  
   315  200  211 ar  
   316  200  212 ar  
   317  201  212 ar  
   318  201  213 ar  
   319  202  213 ar  
   320  202  214 ar  
   321  203  214 ar  
   322  203  215 ar  
   323  204  215 ar  
   324  204  216 ar  
   325  205  217 ar  
   326  206  218 ar  
   327  207  219 ar  
   328  208  220 ar  
   329  209  221 ar  
   330  210  222 ar  
   331  211  223 ar  
   332  212  224 ar  
   333  213  225 ar  
   334  214  226 ar  
   335  215  227 ar  
   336  216  228 ar  
   337  217  229 ar  
   338  217  230 ar  
   339  218  230 ar  
   340  218  231 ar  
   341  219  231 ar  
   342  219  232 ar  
   343  220  232 ar  
   344  220  233 ar  
   345  221  233 ar  
   346  221  234 ar  
   347  222  234 ar  
   348  222  235 ar  
   349  223  235 ar  
   350  223  236 ar  
   351  224  236 ar  
   352  224  237 ar  
   353  225  237 ar  
   354  225  238 ar  
   355  226  238 ar  
   356  226  239 ar  
   357  227  239 ar  
   358  227  240 ar  
   359  228  229 ar  
   360  228  240 ar  
   361  229  241 ar  
   362  230  242 ar  
   363  231  243 ar  
   364  232  244 ar  
   365  233  245 ar  
   366  234  246 ar  
   367  235  247 ar  
   368  236  248 ar  
   369  237  249 ar  
   370  238  250 ar  
   371  239  251 ar  
   372  240  252 ar  
   373  241  253 ar  
   374  241  264 ar  
   375  242  253 ar  
   376  242  254 ar  
   377  243  254 ar  
   378  243  255 ar  
   379  244  255 ar  
   380  244  256 ar  
   381  245  256 ar  
   382  245  257 ar  
   383  246  257 ar  
   384  246  258 ar  
   385  247  258 ar  
   386  247  259 ar  
   387  248  259 ar  
   388  248  260 ar  
   389  249  260 ar  
   390  249  261 ar  
   391  250  261 ar  
   392  250  262 ar  
   393  251  262 ar  
   394  251  263 ar  
   395  252  263 ar  
   396  252  264 ar  
   397  253  265 ar  
   398  254  266 ar  
   399  255  267 ar  
   400  256  268 ar  
   401  257  269 ar  
   402  258  270 ar  
   403  259  271 ar  
   404  260  272 ar  
   405  261  273 ar  
   406  262  274 ar  
   407  263  275 ar  
   408  264  276 ar  
   409  265  277 ar  
   410  265  278 ar  
   411  266  278 ar  
   412  266  279 ar  
   413  267  279 ar  
   414  267  280 ar  
   415  268  280 ar  
   416  268  281 ar  
   417  269  281 ar  
   418  269  282 ar  
   419  270  282 ar  
   420  270  283 ar  
   421  271  283 ar  
   422  271  284 ar  
   423  272  284 ar  
   424  272  285 ar  
   425  273  285 ar  
   426  273  286 ar  
   427  274  286 ar  
   428  274  287 ar  
   429  275  287 ar  
   430  275  288 ar  
   431  276  277 ar  
   432  276  288 ar  
   433  277  289 ar  
   434  278  290 ar  
   435  279  291 ar  
   436  280  292 ar  
   437  281  293 ar  
   438  282  294 ar  
   439  283  295 ar  
   440  284  296 ar  
   441  285  297 ar  
   442  286  298 ar  
   443  287  299 ar  
   444  288  300 ar  
   445  289  301 ar  
   446  289  312 ar  
   447  290  301 ar  
   448  290  302 ar  
   449  291  302 ar  
   450  291  303 ar  
   451  292  303 ar  
   452  292  304 ar  
   453  293  304 ar  
   454  293  305 ar  
   455  294  305 ar  
   456  294  306 ar  
   457  295  306 ar  
   458  295  307 ar  
   459  296  307 ar  
   460  296  308 ar  
   461  297  308 ar  
   462  297  309 ar  
   463  298  309 ar  
   464  298  310 ar  
   465  299  310 ar  
   466  299  311 ar  
   467  300  311 ar  
   468  300  312 ar  
   469  301  313 ar  
   470  302  314 ar  
   471  303  315 ar  
   472  304  316 ar  
   473  305  317 ar  
   474  306  318 ar  
   475  307  319 ar  
   476  308  320 ar  
   477  309  321 ar  
   478  310  322 ar  
   479  311  323 ar  
   480  312  324 ar  
   481  313  325 ar  
   482  313  326 ar  
   483  314  326 ar  
   484  314  327 ar  
   485  315  327 ar  
   486  315  328 ar  
   487  316  328 ar  
   488  316  329 ar  
   489  317  329 ar  
   490  317  330 ar  
   491  318  330 ar  
   492  318  331 ar  
   493  319  331 ar  
   494  319  332 ar  
   495  320  332 ar  
   496  320  333 ar  
   497  321  333 ar  
   498  321  334 ar  
   499  322  334 ar  
   500  322  335 ar  
   501  323  335 ar  
   502  323  336 ar  
   503  324  325 ar  
   504  324  336 ar  
   505  325  337 ar  
   506  326  338 ar  
   507  327  339 ar  
   508  328  340 ar  
   509  329  341 ar  
   510  330  342 ar  
   511  331  343 ar  
   512  332  344 ar  
   513  333  345 ar  
   514  334  346 ar  
   515  335  347 ar  
   516  336  348 ar  
   517  337  349 ar  
   518  337  360 ar  
   519  338  349 ar  
   520  338  350 ar  
   521  339  350 ar  
   522  339  351 ar  
   523  340  351 ar  
   524  340  352 ar  
   525  341  352 ar  
   526  341  353 ar  
   527  342  353 ar  
   528  342  354 ar  
   529  343  354 ar  
   530  343  355 ar  
   531  344  355 ar  
   532  344  356 ar  
   533  345  356 ar  
   534  345  357 ar  
   535  346  357 ar  
   536  346  358 ar  
   537  347  358 ar  
   538  347  359 ar  
   539  348  359 ar  
   540  348  360 ar  
   541  349  361 ar  
   542  350  362 ar  
   543  351  363 ar  
   544  352  364 ar  
   545  353  365 ar  
   546  354  366 ar  
   547  355  367 ar  
   548  356  368 ar  
   549  357  369 ar  
   550  358  370 ar  
   551  359  371 ar  
   552  360  372 ar  
   553  361  373 ar  
   554  361  374 ar  
   555  362  374 ar  
   556  362  375 ar  
   557  363  375 ar  
   558  363  376 ar  
   559  364  376 ar  
   560  364  377 ar  
   561  365  377 ar  
   562  365  378 ar  
   563  366  378 ar  
   564  366  379 ar  
   565  367  379 ar  
   566  367  380 ar  
   567  368  380 ar  
   568  368  381 ar  
   569  369  381 ar  
   570  369  382 ar  
   571  370  382 ar  
   572  370  383 ar  
   573  371  383 ar  
   574  371  384 ar  
   575  372  373 ar  
   576  372  384 ar  
   577  373  385 ar  
   578  374  386 ar  
   579  375  387 ar  
   580  376  388 ar  
   581  377  389 ar  
   582  378  390 ar  
   583  379  391 ar  
   584  380  392 ar  
   585  381  393 ar  
   586  382  394 ar  
   587  383  395 ar  
   588  384  396 ar  
   589  385  397 ar  
   590  385  408 ar  
   591  386  397 ar  
   592  386  398 ar  
   593  387  398 ar  
   594  387  399 ar  
   595  388  399 ar  
   596  388  400 ar  
   597  389  400 ar  
   598  389  401 ar  
   599  390  401 ar  
   600  390  402 ar  
   601  391  402 ar  
   602  391  403 ar  
   603  392  403 ar  
   604  392  404 ar  
   605  393  404 ar  
   606  393  405 ar  
   607  394  405 ar  
   608  394  406 ar  
   609  395  406 ar  
   610  395  407 ar  
   611  396  407 ar  
   612  396  408 ar  
   613  397  409 ar  
   614  398  410 ar  
   615  399  411 ar  
   616  400  412 ar  
   617  401  413 ar  
   618  402  414 ar  
   619  403  415 ar  
   620  404  416 ar  
   621  405  417 ar  
   622  406  418 ar  
   623  407  419 ar  
   624  408  420 ar  
   625  409  421 ar  
   626  409  422 ar  
   627  410  422 ar  
   628  410  423 ar  
   629  411  423 ar  
   630  411  424 ar  
   631  412  424 ar  
   632  412  425 ar  
   633  413  425 ar  
   634  413  426 ar  
   635  414  426 ar  
   636  414  427 ar  
   637  415  427 ar  
   638  415  428 ar  
   639  416  428 ar  
   640  416  429 ar  
   641  417  429 ar  
   642  417  430 ar  
   643  418  430 ar  
   644  418  431 ar  
   645  419  431 ar  
   646  419  432 ar  
   647  420  421 ar  
   648  420  432 ar  
   649  421  433 ar  
   650  422  434 ar  
   651  423  435 ar  
   652  424  436 ar  
   653  425  437 ar  
   654  426  438 ar  
   655  427  439 ar  
   656  428  440 ar  
   657  429  441 ar  
   658  430  442 ar  
   659  431  443 ar  
   660  432  444 ar  
   661  433  445 ar  
   662  433  456 ar  
   663  434  445 ar  
   664  434  446 ar  
   665  435  446 ar  
   666  435  447 ar  
   667  436  447 ar  
   668  436  448 ar  
   669  437  448 ar  
   670  437  449 ar  
   671  438  449 ar  
   672  438  450 ar  
   673  439  450 ar  
   674  439  451 ar  
   675  440  451 ar  
   676  440  452 ar  
   677  441  452 ar  
   678  441  453 ar  
   679  442  453 ar  
   680  442  454 ar  
   681  443  454 ar  
   682  443  455 ar  
   683  444  455 ar  
   684  444  456 ar  
   685  445  457 ar  
   686  446  458 ar  
   687  447  459 ar  
   688  448  460 ar  
   689  449  461 ar  
   690  450  462 ar  
   691  451  463 ar  
   692  452  464 ar  
   693  453  465 ar  
   694  454  466 ar  
   695  455  467 ar  
   696  456  468 ar  
   697  457  469 ar  
   698  457  470 ar  
   699  458  470 ar  
   700  458  471 ar  
   701  459  471 ar  
   702  459  472 ar  
   703  460  472 ar  
   704  460  473 ar  
   705  461  473 ar  
   706  461  474 ar  
   707  462  474 ar  
   708  462  475 ar  
   709  463  475 ar  
   710  463  476 ar  
   711  464  476 ar  
   712  464  477 ar  
   713  465  477 ar  
   714  465  478 ar  
   715  466  478 ar  
   716  466  479 ar  
   717  467  479 ar  
   718  467  480 ar  
   719  468  469 ar  
   720  468  480 ar  
   721  469  481 ar  
   722  470  482 ar  
   723  471  483 ar  
   724  472  484 ar  
   725  473  485 ar  
   726  474  486 ar  
   727  475  487 ar  
   728  476  488 ar  
   729  477  489 ar  
   730  478  490 ar  
   731  479  491 ar  
   732  480  492 ar  
   733  481  493 ar  
   734  481  504 ar  
   735  482  493 ar  
   736  482  494 ar  
   737  483  494 ar  
   738  483  495 ar  
   739  484  495 ar  
   740  484  496 ar  
   741  485  496 ar  
   742  485  497 ar  
   743  486  497 ar  
   744  486  498 ar  
   745  487  498 ar  
   746  487  499 ar  
   747  488  499 ar  
   748  488  500 ar  
   749  489  500 ar  
   750  489  501 ar  
   751  490  501 ar  
   752  490  502 ar  
   753  491  502 ar  
   754  491  503 ar  
   755  492  503 ar  
   756  492  504 ar  
   757  493  505 ar  
   758  494  506 ar  
   759  495  507 ar  
   760  496  508 ar  
   761  497  509 ar  
   762  498  510 ar  
   763  499  511 ar  
   764  500  512 ar  
   765  501  513 ar  
   766  502  514 ar  
   767  503  515 ar  
   768  504  516 ar  
   769  505  517 ar  
   770  505  518 ar  
   771  506  518 ar  
   772  506  519 ar  
   773  507  519 ar  
   774  507  520 ar  
   775  508  520 ar  
   776  508  521 ar  
   777  509  521 ar  
   778  509  522 ar  
   779  510  522 ar  
   780  510  523 ar  
   781  511  523 ar  
   782  511  524 ar  
   783  512  524 ar  
   784  512  525 ar  
   785  513  525 ar  
   786  513  526 ar  
   787  514  526 ar  
   788  514  527 ar  
   789  515  527 ar  
   790  515  528 ar  
   791  516  517 ar  
   792  516  528 ar  
   793  517  529 ar  
   794  518  530 ar  
   795  519  531 ar  
   796  520  532 ar  
   797  521  533 ar  
   798  522  534 ar  
   799  523  535 ar  
   800  524  536 ar  
   801  525  537 ar  
   802  526  538 ar  
   803  527  539 ar  
   804  528  540 ar  
   805  529  541 ar  
   806  529  552 ar  
   807  530  541 ar  
   808  530  542 ar  
   809  531  542 ar  
   810  531  543 ar  
   811  532  543 ar  
   812  532  544 ar  
   813  533  544 ar  
   814  533  545 ar  
   815  534  545 ar  
   816  534  546 ar  
   817  535  546 ar  
   818  535  547 ar  
   819  536  547 ar  
   820  536  548 ar  
   821  537  548 ar  
   822  537  549 ar  
   823  538  549 ar  
   824  538  550 ar  
   825  539  550 ar  
   826  539  551 ar  
   827  540  551 ar  
   828  540  552 ar  
   829  541  553 ar  
   830  542  554 ar  
   831  543  555 ar  
   832  544  556 ar  
   833  545  557 ar  
   834  546  558 ar  
   835  547  559 ar  
   836  548  560 ar  
   837  549  561 ar  
   838  550  562 ar  
   839  551  563 ar  
   840  552  564 ar  
   841  553  565 ar  
   842  553  566 ar  
   843  554  566 ar  
   844  554  567 ar  
   845  555  567 ar  
   846  555  568 ar  
   847  556  568 ar  
   848  556  569 ar  
   849  557  569 ar  
   850  557  570 ar  
   851  558  570 ar  
   852  558  571 ar  
   853  559  571 ar  
   854  559  572 ar  
   855  560  572 ar  
   856  560  573 ar  
   857  561  573 ar  
   858  561  574 ar  
   859  562  574 ar  
   860  562  575 ar  
   861  563  575 ar  
   862  563  576 ar  
   863  564  565 ar  
   864  564  576 ar  
   865  565  577 1   
   866  566  578 1   
   867  567  579 1   
   868  568  580 1   
   869  569  581 1   
   870  570  582 1   
   871  571  583 1   
   872  572  584 1   
   873  573  585 1   
   874  574  586 1   
   875  575  587 1   
   876  576  588 1   
@<TRIPOS>SUBSTRUCTURE
     1 CNT         1 TEMP              0 ****  ****    0 ROOT
