@<TRIPOS>MOLECULE
CNT
  752  1088     1     0     0
SMALL
No Charge or Current Charge


@<TRIPOS>ATOM
      1 C           5.2990    0.0000    0.0000 ca        1 CNT      0.240000
      2 C1          4.5890    0.0000    2.6500 ca        1 CNT     -0.280000
      3 C2          3.7470    0.0000    3.7470 ca        1 CNT      0.240000
      4 C3          1.3720    0.0000    5.1190 ca        1 CNT     -0.280000
      5 C4          0.0000    0.0000    5.2990 ca        1 CNT      0.240000
      6 C5         -2.6500    0.0000    4.5890 ca        1 CNT     -0.280000
      7 C6         -3.7470    0.0000    3.7470 ca        1 CNT      0.240000
      8 C7         -5.1190    0.0000    1.3720 ca        1 CNT     -0.280000
      9 C8         -5.2990    0.0000    0.0000 ca        1 CNT      0.240000
     10 C9         -4.5890    0.0000   -2.6500 ca        1 CNT     -0.280000
     11 C10        -3.7470    0.0000   -3.7470 ca        1 CNT      0.240000
     12 C11        -1.3720    0.0000   -5.1190 ca        1 CNT     -0.280000
     13 C12        -0.0000    0.0000   -5.2990 ca        1 CNT      0.240000
     14 C13         2.6500    0.0000   -4.5890 ca        1 CNT     -0.280000
     15 C14         3.7470    0.0000   -3.7470 ca        1 CNT      0.240000
     16 C15         5.1190    0.0000   -1.3720 ca        1 CNT     -0.280000
     17 C16         5.2540   -1.2020    0.6920 ca        1 CNT      0.010000
     18 C17         4.8960   -1.2020    2.0280 ca        1 CNT      0.010000
     19 C18         3.2260   -1.2020    4.2040 ca        1 CNT      0.010000
     20 C19         2.0280   -1.2020    4.8960 ca        1 CNT      0.010000
     21 C20        -0.6920   -1.2020    5.2540 ca        1 CNT      0.010000
     22 C21        -2.0280   -1.2020    4.8960 ca        1 CNT      0.010000
     23 C22        -4.2040   -1.2020    3.2260 ca        1 CNT      0.010000
     24 C23        -4.8960   -1.2020    2.0280 ca        1 CNT      0.010000
     25 C24        -5.2540   -1.2020   -0.6920 ca        1 CNT      0.010000
     26 C25        -4.8960   -1.2020   -2.0280 ca        1 CNT      0.010000
     27 C26        -3.2260   -1.2020   -4.2040 ca        1 CNT      0.010000
     28 C27        -2.0280   -1.2020   -4.8960 ca        1 CNT      0.010000
     29 C28         0.6920   -1.2020   -5.2540 ca        1 CNT      0.010000
     30 C29         2.0280   -1.2020   -4.8960 ca        1 CNT      0.010000
     31 C30         4.2040   -1.2020   -3.2260 ca        1 CNT      0.010000
     32 C31         4.8960   -1.2020   -2.0280 ca        1 CNT      0.010000
     33 C32         5.2990   -2.4030    0.0000 ca        1 CNT      0.000000
     34 C33         4.5890   -2.4030    2.6500 ca        1 CNT      0.000000
     35 C34         3.7470   -2.4030    3.7470 ca        1 CNT      0.000000
     36 C35         1.3720   -2.4030    5.1190 ca        1 CNT      0.000000
     37 C36         0.0000   -2.4030    5.2990 ca        1 CNT      0.000000
     38 C37        -2.6500   -2.4030    4.5890 ca        1 CNT      0.000000
     39 C38        -3.7470   -2.4030    3.7470 ca        1 CNT      0.000000
     40 C39        -5.1190   -2.4030    1.3720 ca        1 CNT      0.000000
     41 C40        -5.2990   -2.4030    0.0000 ca        1 CNT      0.000000
     42 C41        -4.5890   -2.4030   -2.6500 ca        1 CNT      0.000000
     43 C42        -3.7470   -2.4030   -3.7470 ca        1 CNT      0.000000
     44 C43        -1.3720   -2.4030   -5.1190 ca        1 CNT      0.000000
     45 C44        -0.0000   -2.4030   -5.2990 ca        1 CNT      0.000000
     46 C45         2.6500   -2.4030   -4.5890 ca        1 CNT      0.000000
     47 C46         3.7470   -2.4030   -3.7470 ca        1 CNT      0.000000
     48 C47         5.1190   -2.4030   -1.3720 ca        1 CNT      0.000000
     49 C48         5.2540   -3.6050    0.6920 ca        1 CNT      0.000000
     50 C49         4.8960   -3.6050    2.0280 ca        1 CNT      0.000000
     51 C50         3.2260   -3.6050    4.2040 ca        1 CNT      0.000000
     52 C51         2.0280   -3.6050    4.8960 ca        1 CNT      0.000000
     53 C52        -0.6920   -3.6050    5.2540 ca        1 CNT      0.000000
     54 C53        -2.0280   -3.6050    4.8960 ca        1 CNT      0.000000
     55 C54        -4.2040   -3.6050    3.2260 ca        1 CNT      0.000000
     56 C55        -4.8960   -3.6050    2.0280 ca        1 CNT      0.000000
     57 C56        -5.2540   -3.6050   -0.6920 ca        1 CNT      0.000000
     58 C57        -4.8960   -3.6050   -2.0280 ca        1 CNT      0.000000
     59 C58        -3.2260   -3.6050   -4.2040 ca        1 CNT      0.000000
     60 C59        -2.0280   -3.6050   -4.8960 ca        1 CNT      0.000000
     61 C60         0.6920   -3.6050   -5.2540 ca        1 CNT      0.000000
     62 C61         2.0280   -3.6050   -4.8960 ca        1 CNT      0.000000
     63 C62         4.2040   -3.6050   -3.2260 ca        1 CNT      0.000000
     64 C63         4.8960   -3.6050   -2.0280 ca        1 CNT      0.000000
     65 C64         5.2990   -4.8060    0.0000 ca        1 CNT      0.000000
     66 C65         4.5890   -4.8060    2.6500 ca        1 CNT      0.000000
     67 C66         3.7470   -4.8060    3.7470 ca        1 CNT      0.000000
     68 C67         1.3720   -4.8060    5.1190 ca        1 CNT      0.000000
     69 C68         0.0000   -4.8060    5.2990 ca        1 CNT      0.000000
     70 C69        -2.6500   -4.8060    4.5890 ca        1 CNT      0.000000
     71 C70        -3.7470   -4.8060    3.7470 ca        1 CNT      0.000000
     72 C71        -5.1190   -4.8060    1.3720 ca        1 CNT      0.000000
     73 C72        -5.2990   -4.8060    0.0000 ca        1 CNT      0.000000
     74 C73        -4.5890   -4.8060   -2.6500 ca        1 CNT      0.000000
     75 C74        -3.7470   -4.8060   -3.7470 ca        1 CNT      0.000000
     76 C75        -1.3720   -4.8060   -5.1190 ca        1 CNT      0.000000
     77 C76        -0.0000   -4.8060   -5.2990 ca        1 CNT      0.000000
     78 C77         2.6500   -4.8060   -4.5890 ca        1 CNT      0.000000
     79 C78         3.7470   -4.8060   -3.7470 ca        1 CNT      0.000000
     80 C79         5.1190   -4.8060   -1.3720 ca        1 CNT      0.000000
     81 C80         5.2540   -6.0080    0.6920 ca        1 CNT      0.000000
     82 C81         4.8960   -6.0080    2.0280 ca        1 CNT      0.000000
     83 C82         3.2260   -6.0080    4.2040 ca        1 CNT      0.000000
     84 C83         2.0280   -6.0080    4.8960 ca        1 CNT      0.000000
     85 C84        -0.6920   -6.0080    5.2540 ca        1 CNT      0.000000
     86 C85        -2.0280   -6.0080    4.8960 ca        1 CNT      0.000000
     87 C86        -4.2040   -6.0080    3.2260 ca        1 CNT      0.000000
     88 C87        -4.8960   -6.0080    2.0280 ca        1 CNT      0.000000
     89 C88        -5.2540   -6.0080   -0.6920 ca        1 CNT      0.000000
     90 C89        -4.8960   -6.0080   -2.0280 ca        1 CNT      0.000000
     91 C90        -3.2260   -6.0080   -4.2040 ca        1 CNT      0.000000
     92 C91        -2.0280   -6.0080   -4.8960 ca        1 CNT      0.000000
     93 C92         0.6920   -6.0080   -5.2540 ca        1 CNT      0.000000
     94 C93         2.0280   -6.0080   -4.8960 ca        1 CNT      0.000000
     95 C94         4.2040   -6.0080   -3.2260 ca        1 CNT      0.000000
     96 C95         4.8960   -6.0080   -2.0280 ca        1 CNT      0.000000
     97 C96         5.2990   -7.2090    0.0000 ca        1 CNT      0.000000
     98 C97         4.5890   -7.2090    2.6500 ca        1 CNT      0.000000
     99 C98         3.7470   -7.2090    3.7470 ca        1 CNT      0.000000
    100 C99         1.3720   -7.2090    5.1190 ca        1 CNT      0.000000
    101 C100        0.0000   -7.2090    5.2990 ca        1 CNT      0.000000
    102 C101       -2.6500   -7.2090    4.5890 ca        1 CNT      0.000000
    103 C102       -3.7470   -7.2090    3.7470 ca        1 CNT      0.000000
    104 C103       -5.1190   -7.2090    1.3720 ca        1 CNT      0.000000
    105 C104       -5.2990   -7.2090    0.0000 ca        1 CNT      0.000000
    106 C105       -4.5890   -7.2090   -2.6500 ca        1 CNT      0.000000
    107 C106       -3.7470   -7.2090   -3.7470 ca        1 CNT      0.000000
    108 C107       -1.3720   -7.2090   -5.1190 ca        1 CNT      0.000000
    109 C108       -0.0000   -7.2090   -5.2990 ca        1 CNT      0.000000
    110 C109        2.6500   -7.2090   -4.5890 ca        1 CNT      0.000000
    111 C110        3.7470   -7.2090   -3.7470 ca        1 CNT      0.000000
    112 C111        5.1190   -7.2090   -1.3720 ca        1 CNT      0.000000
    113 C112        5.2540   -8.4110    0.6920 ca        1 CNT      0.000000
    114 C113        4.8960   -8.4110    2.0280 ca        1 CNT      0.000000
    115 C114        3.2260   -8.4110    4.2040 ca        1 CNT      0.000000
    116 C115        2.0280   -8.4110    4.8960 ca        1 CNT      0.000000
    117 C116       -0.6920   -8.4110    5.2540 ca        1 CNT      0.000000
    118 C117       -2.0280   -8.4110    4.8960 ca        1 CNT      0.000000
    119 C118       -4.2040   -8.4110    3.2260 ca        1 CNT      0.000000
    120 C119       -4.8960   -8.4110    2.0280 ca        1 CNT      0.000000
    121 C120       -5.2540   -8.4110   -0.6920 ca        1 CNT      0.000000
    122 C121       -4.8960   -8.4110   -2.0280 ca        1 CNT      0.000000
    123 C122       -3.2260   -8.4110   -4.2040 ca        1 CNT      0.000000
    124 C123       -2.0280   -8.4110   -4.8960 ca        1 CNT      0.000000
    125 C124        0.6920   -8.4110   -5.2540 ca        1 CNT      0.000000
    126 C125        2.0280   -8.4110   -4.8960 ca        1 CNT      0.000000
    127 C126        4.2040   -8.4110   -3.2260 ca        1 CNT      0.000000
    128 C127        4.8960   -8.4110   -2.0280 ca        1 CNT      0.000000
    129 C128        5.2990   -9.6120    0.0000 ca        1 CNT      0.000000
    130 C129        4.5890   -9.6120    2.6500 ca        1 CNT      0.000000
    131 C130        3.7470   -9.6120    3.7470 ca        1 CNT      0.000000
    132 C131        1.3720   -9.6120    5.1190 ca        1 CNT      0.000000
    133 C132        0.0000   -9.6120    5.2990 ca        1 CNT      0.000000
    134 C133       -2.6500   -9.6120    4.5890 ca        1 CNT      0.000000
    135 C134       -3.7470   -9.6120    3.7470 ca        1 CNT      0.000000
    136 C135       -5.1190   -9.6120    1.3720 ca        1 CNT      0.000000
    137 C136       -5.2990   -9.6120    0.0000 ca        1 CNT      0.000000
    138 C137       -4.5890   -9.6120   -2.6500 ca        1 CNT      0.000000
    139 C138       -3.7470   -9.6120   -3.7470 ca        1 CNT      0.000000
    140 C139       -1.3720   -9.6120   -5.1190 ca        1 CNT      0.000000
    141 C140       -0.0000   -9.6120   -5.2990 ca        1 CNT      0.000000
    142 C141        2.6500   -9.6120   -4.5890 ca        1 CNT      0.000000
    143 C142        3.7470   -9.6120   -3.7470 ca        1 CNT      0.000000
    144 C143        5.1190   -9.6120   -1.3720 ca        1 CNT      0.000000
    145 C144        5.2540  -10.8140    0.6920 ca        1 CNT      0.000000
    146 C145        4.8960  -10.8140    2.0280 ca        1 CNT      0.000000
    147 C146        3.2260  -10.8140    4.2040 ca        1 CNT      0.000000
    148 C147        2.0280  -10.8140    4.8960 ca        1 CNT      0.000000
    149 C148       -0.6920  -10.8140    5.2540 ca        1 CNT      0.000000
    150 C149       -2.0280  -10.8140    4.8960 ca        1 CNT      0.000000
    151 C150       -4.2040  -10.8140    3.2260 ca        1 CNT      0.000000
    152 C151       -4.8960  -10.8140    2.0280 ca        1 CNT      0.000000
    153 C152       -5.2540  -10.8140   -0.6920 ca        1 CNT      0.000000
    154 C153       -4.8960  -10.8140   -2.0280 ca        1 CNT      0.000000
    155 C154       -3.2260  -10.8140   -4.2040 ca        1 CNT      0.000000
    156 C155       -2.0280  -10.8140   -4.8960 ca        1 CNT      0.000000
    157 C156        0.6920  -10.8140   -5.2540 ca        1 CNT      0.000000
    158 C157        2.0280  -10.8140   -4.8960 ca        1 CNT      0.000000
    159 C158        4.2040  -10.8140   -3.2260 ca        1 CNT      0.000000
    160 C159        4.8960  -10.8140   -2.0280 ca        1 CNT      0.000000
    161 C160        5.2990  -12.0150    0.0000 ca        1 CNT      0.000000
    162 C161        4.5890  -12.0150    2.6500 ca        1 CNT      0.000000
    163 C162        3.7470  -12.0150    3.7470 ca        1 CNT      0.000000
    164 C163        1.3720  -12.0150    5.1190 ca        1 CNT      0.000000
    165 C164        0.0000  -12.0150    5.2990 ca        1 CNT      0.000000
    166 C165       -2.6500  -12.0150    4.5890 ca        1 CNT      0.000000
    167 C166       -3.7470  -12.0150    3.7470 ca        1 CNT      0.000000
    168 C167       -5.1190  -12.0150    1.3720 ca        1 CNT      0.000000
    169 C168       -5.2990  -12.0150    0.0000 ca        1 CNT      0.000000
    170 C169       -4.5890  -12.0150   -2.6500 ca        1 CNT      0.000000
    171 C170       -3.7470  -12.0150   -3.7470 ca        1 CNT      0.000000
    172 C171       -1.3720  -12.0150   -5.1190 ca        1 CNT      0.000000
    173 C172       -0.0000  -12.0150   -5.2990 ca        1 CNT      0.000000
    174 C173        2.6500  -12.0150   -4.5890 ca        1 CNT      0.000000
    175 C174        3.7470  -12.0150   -3.7470 ca        1 CNT      0.000000
    176 C175        5.1190  -12.0150   -1.3720 ca        1 CNT      0.000000
    177 C176        5.2540  -13.2170    0.6920 ca        1 CNT      0.000000
    178 C177        4.8960  -13.2170    2.0280 ca        1 CNT      0.000000
    179 C178        3.2260  -13.2170    4.2040 ca        1 CNT      0.000000
    180 C179        2.0280  -13.2170    4.8960 ca        1 CNT      0.000000
    181 C180       -0.6920  -13.2170    5.2540 ca        1 CNT      0.000000
    182 C181       -2.0280  -13.2170    4.8960 ca        1 CNT      0.000000
    183 C182       -4.2040  -13.2170    3.2260 ca        1 CNT      0.000000
    184 C183       -4.8960  -13.2170    2.0280 ca        1 CNT      0.000000
    185 C184       -5.2540  -13.2170   -0.6920 ca        1 CNT      0.000000
    186 C185       -4.8960  -13.2170   -2.0280 ca        1 CNT      0.000000
    187 C186       -3.2260  -13.2170   -4.2040 ca        1 CNT      0.000000
    188 C187       -2.0280  -13.2170   -4.8960 ca        1 CNT      0.000000
    189 C188        0.6920  -13.2170   -5.2540 ca        1 CNT      0.000000
    190 C189        2.0280  -13.2170   -4.8960 ca        1 CNT      0.000000
    191 C190        4.2040  -13.2170   -3.2260 ca        1 CNT      0.000000
    192 C191        4.8960  -13.2170   -2.0280 ca        1 CNT      0.000000
    193 C192        5.2990  -14.4180    0.0000 ca        1 CNT      0.000000
    194 C193        4.5890  -14.4180    2.6500 ca        1 CNT      0.000000
    195 C194        3.7470  -14.4180    3.7470 ca        1 CNT      0.000000
    196 C195        1.3720  -14.4180    5.1190 ca        1 CNT      0.000000
    197 C196        0.0000  -14.4180    5.2990 ca        1 CNT      0.000000
    198 C197       -2.6500  -14.4180    4.5890 ca        1 CNT      0.000000
    199 C198       -3.7470  -14.4180    3.7470 ca        1 CNT      0.000000
    200 C199       -5.1190  -14.4180    1.3720 ca        1 CNT      0.000000
    201 C200       -5.2990  -14.4180    0.0000 ca        1 CNT      0.000000
    202 C201       -4.5890  -14.4180   -2.6500 ca        1 CNT      0.000000
    203 C202       -3.7470  -14.4180   -3.7470 ca        1 CNT      0.000000
    204 C203       -1.3720  -14.4180   -5.1190 ca        1 CNT      0.000000
    205 C204       -0.0000  -14.4180   -5.2990 ca        1 CNT      0.000000
    206 C205        2.6500  -14.4180   -4.5890 ca        1 CNT      0.000000
    207 C206        3.7470  -14.4180   -3.7470 ca        1 CNT      0.000000
    208 C207        5.1190  -14.4180   -1.3720 ca        1 CNT      0.000000
    209 C208        5.2540  -15.6200    0.6920 ca        1 CNT      0.000000
    210 C209        4.8960  -15.6200    2.0280 ca        1 CNT      0.000000
    211 C210        3.2260  -15.6200    4.2040 ca        1 CNT      0.000000
    212 C211        2.0280  -15.6200    4.8960 ca        1 CNT      0.000000
    213 C212       -0.6920  -15.6200    5.2540 ca        1 CNT      0.000000
    214 C213       -2.0280  -15.6200    4.8960 ca        1 CNT      0.000000
    215 C214       -4.2040  -15.6200    3.2260 ca        1 CNT      0.000000
    216 C215       -4.8960  -15.6200    2.0280 ca        1 CNT      0.000000
    217 C216       -5.2540  -15.6200   -0.6920 ca        1 CNT      0.000000
    218 C217       -4.8960  -15.6200   -2.0280 ca        1 CNT      0.000000
    219 C218       -3.2260  -15.6200   -4.2040 ca        1 CNT      0.000000
    220 C219       -2.0280  -15.6200   -4.8960 ca        1 CNT      0.000000
    221 C220        0.6920  -15.6200   -5.2540 ca        1 CNT      0.000000
    222 C221        2.0280  -15.6200   -4.8960 ca        1 CNT      0.000000
    223 C222        4.2040  -15.6200   -3.2260 ca        1 CNT      0.000000
    224 C223        4.8960  -15.6200   -2.0280 ca        1 CNT      0.000000
    225 C224        5.2990  -16.8210    0.0000 ca        1 CNT      0.000000
    226 C225        4.5890  -16.8210    2.6500 ca        1 CNT      0.000000
    227 C226        3.7470  -16.8210    3.7470 ca        1 CNT      0.000000
    228 C227        1.3720  -16.8210    5.1190 ca        1 CNT      0.000000
    229 C228        0.0000  -16.8210    5.2990 ca        1 CNT      0.000000
    230 C229       -2.6500  -16.8210    4.5890 ca        1 CNT      0.000000
    231 C230       -3.7470  -16.8210    3.7470 ca        1 CNT      0.000000
    232 C231       -5.1190  -16.8210    1.3720 ca        1 CNT      0.000000
    233 C232       -5.2990  -16.8210    0.0000 ca        1 CNT      0.000000
    234 C233       -4.5890  -16.8210   -2.6500 ca        1 CNT      0.000000
    235 C234       -3.7470  -16.8210   -3.7470 ca        1 CNT      0.000000
    236 C235       -1.3720  -16.8210   -5.1190 ca        1 CNT      0.000000
    237 C236       -0.0000  -16.8210   -5.2990 ca        1 CNT      0.000000
    238 C237        2.6500  -16.8210   -4.5890 ca        1 CNT      0.000000
    239 C238        3.7470  -16.8210   -3.7470 ca        1 CNT      0.000000
    240 C239        5.1190  -16.8210   -1.3720 ca        1 CNT      0.000000
    241 C240        5.2540  -18.0230    0.6920 ca        1 CNT      0.000000
    242 C241        4.8960  -18.0230    2.0280 ca        1 CNT      0.000000
    243 C242        3.2260  -18.0230    4.2040 ca        1 CNT      0.000000
    244 C243        2.0280  -18.0230    4.8960 ca        1 CNT      0.000000
    245 C244       -0.6920  -18.0230    5.2540 ca        1 CNT      0.000000
    246 C245       -2.0280  -18.0230    4.8960 ca        1 CNT      0.000000
    247 C246       -4.2040  -18.0230    3.2260 ca        1 CNT      0.000000
    248 C247       -4.8960  -18.0230    2.0280 ca        1 CNT      0.000000
    249 C248       -5.2540  -18.0230   -0.6920 ca        1 CNT      0.000000
    250 C249       -4.8960  -18.0230   -2.0280 ca        1 CNT      0.000000
    251 C250       -3.2260  -18.0230   -4.2040 ca        1 CNT      0.000000
    252 C251       -2.0280  -18.0230   -4.8960 ca        1 CNT      0.000000
    253 C252        0.6920  -18.0230   -5.2540 ca        1 CNT      0.000000
    254 C253        2.0280  -18.0230   -4.8960 ca        1 CNT      0.000000
    255 C254        4.2040  -18.0230   -3.2260 ca        1 CNT      0.000000
    256 C255        4.8960  -18.0230   -2.0280 ca        1 CNT      0.000000
    257 C256        5.2990  -19.2240    0.0000 ca        1 CNT      0.000000
    258 C257        4.5890  -19.2240    2.6500 ca        1 CNT      0.000000
    259 C258        3.7470  -19.2240    3.7470 ca        1 CNT      0.000000
    260 C259        1.3720  -19.2240    5.1190 ca        1 CNT      0.000000
    261 C260        0.0000  -19.2240    5.2990 ca        1 CNT      0.000000
    262 C261       -2.6500  -19.2240    4.5890 ca        1 CNT      0.000000
    263 C262       -3.7470  -19.2240    3.7470 ca        1 CNT      0.000000
    264 C263       -5.1190  -19.2240    1.3720 ca        1 CNT      0.000000
    265 C264       -5.2990  -19.2240    0.0000 ca        1 CNT      0.000000
    266 C265       -4.5890  -19.2240   -2.6500 ca        1 CNT      0.000000
    267 C266       -3.7470  -19.2240   -3.7470 ca        1 CNT      0.000000
    268 C267       -1.3720  -19.2240   -5.1190 ca        1 CNT      0.000000
    269 C268       -0.0000  -19.2240   -5.2990 ca        1 CNT      0.000000
    270 C269        2.6500  -19.2240   -4.5890 ca        1 CNT      0.000000
    271 C270        3.7470  -19.2240   -3.7470 ca        1 CNT      0.000000
    272 C271        5.1190  -19.2240   -1.3720 ca        1 CNT      0.000000
    273 C272        5.2540  -20.4260    0.6920 ca        1 CNT      0.000000
    274 C273        4.8960  -20.4260    2.0280 ca        1 CNT      0.000000
    275 C274        3.2260  -20.4260    4.2040 ca        1 CNT      0.000000
    276 C275        2.0280  -20.4260    4.8960 ca        1 CNT      0.000000
    277 C276       -0.6920  -20.4260    5.2540 ca        1 CNT      0.000000
    278 C277       -2.0280  -20.4260    4.8960 ca        1 CNT      0.000000
    279 C278       -4.2040  -20.4260    3.2260 ca        1 CNT      0.000000
    280 C279       -4.8960  -20.4260    2.0280 ca        1 CNT      0.000000
    281 C280       -5.2540  -20.4260   -0.6920 ca        1 CNT      0.000000
    282 C281       -4.8960  -20.4260   -2.0280 ca        1 CNT      0.000000
    283 C282       -3.2260  -20.4260   -4.2040 ca        1 CNT      0.000000
    284 C283       -2.0280  -20.4260   -4.8960 ca        1 CNT      0.000000
    285 C284        0.6920  -20.4260   -5.2540 ca        1 CNT      0.000000
    286 C285        2.0280  -20.4260   -4.8960 ca        1 CNT      0.000000
    287 C286        4.2040  -20.4260   -3.2260 ca        1 CNT      0.000000
    288 C287        4.8960  -20.4260   -2.0280 ca        1 CNT      0.000000
    289 C288        5.2990  -21.6270    0.0000 ca        1 CNT      0.000000
    290 C289        4.5890  -21.6270    2.6500 ca        1 CNT      0.000000
    291 C290        3.7470  -21.6270    3.7470 ca        1 CNT      0.000000
    292 C291        1.3720  -21.6270    5.1190 ca        1 CNT      0.000000
    293 C292        0.0000  -21.6270    5.2990 ca        1 CNT      0.000000
    294 C293       -2.6500  -21.6270    4.5890 ca        1 CNT      0.000000
    295 C294       -3.7470  -21.6270    3.7470 ca        1 CNT      0.000000
    296 C295       -5.1190  -21.6270    1.3720 ca        1 CNT      0.000000
    297 C296       -5.2990  -21.6270    0.0000 ca        1 CNT      0.000000
    298 C297       -4.5890  -21.6270   -2.6500 ca        1 CNT      0.000000
    299 C298       -3.7470  -21.6270   -3.7470 ca        1 CNT      0.000000
    300 C299       -1.3720  -21.6270   -5.1190 ca        1 CNT      0.000000
    301 C300       -0.0000  -21.6270   -5.2990 ca        1 CNT      0.000000
    302 C301        2.6500  -21.6270   -4.5890 ca        1 CNT      0.000000
    303 C302        3.7470  -21.6270   -3.7470 ca        1 CNT      0.000000
    304 C303        5.1190  -21.6270   -1.3720 ca        1 CNT      0.000000
    305 C304        5.2540  -22.8290    0.6920 ca        1 CNT      0.000000
    306 C305        4.8960  -22.8290    2.0280 ca        1 CNT      0.000000
    307 C306        3.2260  -22.8290    4.2040 ca        1 CNT      0.000000
    308 C307        2.0280  -22.8290    4.8960 ca        1 CNT      0.000000
    309 C308       -0.6920  -22.8290    5.2540 ca        1 CNT      0.000000
    310 C309       -2.0280  -22.8290    4.8960 ca        1 CNT      0.000000
    311 C310       -4.2040  -22.8290    3.2260 ca        1 CNT      0.000000
    312 C311       -4.8960  -22.8290    2.0280 ca        1 CNT      0.000000
    313 C312       -5.2540  -22.8290   -0.6920 ca        1 CNT      0.000000
    314 C313       -4.8960  -22.8290   -2.0280 ca        1 CNT      0.000000
    315 C314       -3.2260  -22.8290   -4.2040 ca        1 CNT      0.000000
    316 C315       -2.0280  -22.8290   -4.8960 ca        1 CNT      0.000000
    317 C316        0.6920  -22.8290   -5.2540 ca        1 CNT      0.000000
    318 C317        2.0280  -22.8290   -4.8960 ca        1 CNT      0.000000
    319 C318        4.2040  -22.8290   -3.2260 ca        1 CNT      0.000000
    320 C319        4.8960  -22.8290   -2.0280 ca        1 CNT      0.000000
    321 C320        5.2990  -24.0300    0.0000 ca        1 CNT      0.000000
    322 C321        4.5890  -24.0300    2.6500 ca        1 CNT      0.000000
    323 C322        3.7470  -24.0300    3.7470 ca        1 CNT      0.000000
    324 C323        1.3720  -24.0300    5.1190 ca        1 CNT      0.000000
    325 C324        0.0000  -24.0300    5.2990 ca        1 CNT      0.000000
    326 C325       -2.6500  -24.0300    4.5890 ca        1 CNT      0.000000
    327 C326       -3.7470  -24.0300    3.7470 ca        1 CNT      0.000000
    328 C327       -5.1190  -24.0300    1.3720 ca        1 CNT      0.000000
    329 C328       -5.2990  -24.0300    0.0000 ca        1 CNT      0.000000
    330 C329       -4.5890  -24.0300   -2.6500 ca        1 CNT      0.000000
    331 C330       -3.7470  -24.0300   -3.7470 ca        1 CNT      0.000000
    332 C331       -1.3720  -24.0300   -5.1190 ca        1 CNT      0.000000
    333 C332       -0.0000  -24.0300   -5.2990 ca        1 CNT      0.000000
    334 C333        2.6500  -24.0300   -4.5890 ca        1 CNT      0.000000
    335 C334        3.7470  -24.0300   -3.7470 ca        1 CNT      0.000000
    336 C335        5.1190  -24.0300   -1.3720 ca        1 CNT      0.000000
    337 C336        5.2540  -25.2320    0.6920 ca        1 CNT      0.000000
    338 C337        4.8960  -25.2320    2.0280 ca        1 CNT      0.000000
    339 C338        3.2260  -25.2320    4.2040 ca        1 CNT      0.000000
    340 C339        2.0280  -25.2320    4.8960 ca        1 CNT      0.000000
    341 C340       -0.6920  -25.2320    5.2540 ca        1 CNT      0.000000
    342 C341       -2.0280  -25.2320    4.8960 ca        1 CNT      0.000000
    343 C342       -4.2040  -25.2320    3.2260 ca        1 CNT      0.000000
    344 C343       -4.8960  -25.2320    2.0280 ca        1 CNT      0.000000
    345 C344       -5.2540  -25.2320   -0.6920 ca        1 CNT      0.000000
    346 C345       -4.8960  -25.2320   -2.0280 ca        1 CNT      0.000000
    347 C346       -3.2260  -25.2320   -4.2040 ca        1 CNT      0.000000
    348 C347       -2.0280  -25.2320   -4.8960 ca        1 CNT      0.000000
    349 C348        0.6920  -25.2320   -5.2540 ca        1 CNT      0.000000
    350 C349        2.0280  -25.2320   -4.8960 ca        1 CNT      0.000000
    351 C350        4.2040  -25.2320   -3.2260 ca        1 CNT      0.000000
    352 C351        4.8960  -25.2320   -2.0280 ca        1 CNT      0.000000
    353 C352        5.2990  -26.4340    0.0000 ca        1 CNT      0.000000
    354 C353        4.5890  -26.4340    2.6500 ca        1 CNT      0.000000
    355 C354        3.7470  -26.4340    3.7470 ca        1 CNT      0.000000
    356 C355        1.3720  -26.4340    5.1190 ca        1 CNT      0.000000
    357 C356        0.0000  -26.4340    5.2990 ca        1 CNT      0.000000
    358 C357       -2.6500  -26.4340    4.5890 ca        1 CNT      0.000000
    359 C358       -3.7470  -26.4340    3.7470 ca        1 CNT      0.000000
    360 C359       -5.1190  -26.4340    1.3720 ca        1 CNT      0.000000
    361 C360       -5.2990  -26.4340    0.0000 ca        1 CNT      0.000000
    362 C361       -4.5890  -26.4340   -2.6500 ca        1 CNT      0.000000
    363 C362       -3.7470  -26.4340   -3.7470 ca        1 CNT      0.000000
    364 C363       -1.3720  -26.4340   -5.1190 ca        1 CNT      0.000000
    365 C364       -0.0000  -26.4340   -5.2990 ca        1 CNT      0.000000
    366 C365        2.6500  -26.4340   -4.5890 ca        1 CNT      0.000000
    367 C366        3.7470  -26.4340   -3.7470 ca        1 CNT      0.000000
    368 C367        5.1190  -26.4340   -1.3720 ca        1 CNT      0.000000
    369 C368        5.2540  -27.6350    0.6920 ca        1 CNT      0.000000
    370 C369        4.8960  -27.6350    2.0280 ca        1 CNT      0.000000
    371 C370        3.2260  -27.6350    4.2040 ca        1 CNT      0.000000
    372 C371        2.0280  -27.6350    4.8960 ca        1 CNT      0.000000
    373 C372       -0.6920  -27.6350    5.2540 ca        1 CNT      0.000000
    374 C373       -2.0280  -27.6350    4.8960 ca        1 CNT      0.000000
    375 C374       -4.2040  -27.6350    3.2260 ca        1 CNT      0.000000
    376 C375       -4.8960  -27.6350    2.0280 ca        1 CNT      0.000000
    377 C376       -5.2540  -27.6350   -0.6920 ca        1 CNT      0.000000
    378 C377       -4.8960  -27.6350   -2.0280 ca        1 CNT      0.000000
    379 C378       -3.2260  -27.6350   -4.2040 ca        1 CNT      0.000000
    380 C379       -2.0280  -27.6350   -4.8960 ca        1 CNT      0.000000
    381 C380        0.6920  -27.6350   -5.2540 ca        1 CNT      0.000000
    382 C381        2.0280  -27.6350   -4.8960 ca        1 CNT      0.000000
    383 C382        4.2040  -27.6350   -3.2260 ca        1 CNT      0.000000
    384 C383        4.8960  -27.6350   -2.0280 ca        1 CNT      0.000000
    385 C384        5.2990  -28.8370    0.0000 ca        1 CNT      0.000000
    386 C385        4.5890  -28.8370    2.6500 ca        1 CNT      0.000000
    387 C386        3.7470  -28.8370    3.7470 ca        1 CNT      0.000000
    388 C387        1.3720  -28.8370    5.1190 ca        1 CNT      0.000000
    389 C388        0.0000  -28.8370    5.2990 ca        1 CNT      0.000000
    390 C389       -2.6500  -28.8370    4.5890 ca        1 CNT      0.000000
    391 C390       -3.7470  -28.8370    3.7470 ca        1 CNT      0.000000
    392 C391       -5.1190  -28.8370    1.3720 ca        1 CNT      0.000000
    393 C392       -5.2990  -28.8370    0.0000 ca        1 CNT      0.000000
    394 C393       -4.5890  -28.8370   -2.6500 ca        1 CNT      0.000000
    395 C394       -3.7470  -28.8370   -3.7470 ca        1 CNT      0.000000
    396 C395       -1.3720  -28.8370   -5.1190 ca        1 CNT      0.000000
    397 C396       -0.0000  -28.8370   -5.2990 ca        1 CNT      0.000000
    398 C397        2.6500  -28.8370   -4.5890 ca        1 CNT      0.000000
    399 C398        3.7470  -28.8370   -3.7470 ca        1 CNT      0.000000
    400 C399        5.1190  -28.8370   -1.3720 ca        1 CNT      0.000000
    401 C400        5.2540  -30.0380    0.6920 ca        1 CNT      0.000000
    402 C401        4.8960  -30.0380    2.0280 ca        1 CNT      0.000000
    403 C402        3.2260  -30.0380    4.2040 ca        1 CNT      0.000000
    404 C403        2.0280  -30.0380    4.8960 ca        1 CNT      0.000000
    405 C404       -0.6920  -30.0380    5.2540 ca        1 CNT      0.000000
    406 C405       -2.0280  -30.0380    4.8960 ca        1 CNT      0.000000
    407 C406       -4.2040  -30.0380    3.2260 ca        1 CNT      0.000000
    408 C407       -4.8960  -30.0380    2.0280 ca        1 CNT      0.000000
    409 C408       -5.2540  -30.0380   -0.6920 ca        1 CNT      0.000000
    410 C409       -4.8960  -30.0380   -2.0280 ca        1 CNT      0.000000
    411 C410       -3.2260  -30.0380   -4.2040 ca        1 CNT      0.000000
    412 C411       -2.0280  -30.0380   -4.8960 ca        1 CNT      0.000000
    413 C412        0.6920  -30.0380   -5.2540 ca        1 CNT      0.000000
    414 C413        2.0280  -30.0380   -4.8960 ca        1 CNT      0.000000
    415 C414        4.2040  -30.0380   -3.2260 ca        1 CNT      0.000000
    416 C415        4.8960  -30.0380   -2.0280 ca        1 CNT      0.000000
    417 C416        5.2990  -31.2400    0.0000 ca        1 CNT      0.000000
    418 C417        4.5890  -31.2400    2.6500 ca        1 CNT      0.000000
    419 C418        3.7470  -31.2400    3.7470 ca        1 CNT      0.000000
    420 C419        1.3720  -31.2400    5.1190 ca        1 CNT      0.000000
    421 C420        0.0000  -31.2400    5.2990 ca        1 CNT      0.000000
    422 C421       -2.6500  -31.2400    4.5890 ca        1 CNT      0.000000
    423 C422       -3.7470  -31.2400    3.7470 ca        1 CNT      0.000000
    424 C423       -5.1190  -31.2400    1.3720 ca        1 CNT      0.000000
    425 C424       -5.2990  -31.2400    0.0000 ca        1 CNT      0.000000
    426 C425       -4.5890  -31.2400   -2.6500 ca        1 CNT      0.000000
    427 C426       -3.7470  -31.2400   -3.7470 ca        1 CNT      0.000000
    428 C427       -1.3720  -31.2400   -5.1190 ca        1 CNT      0.000000
    429 C428       -0.0000  -31.2400   -5.2990 ca        1 CNT      0.000000
    430 C429        2.6500  -31.2400   -4.5890 ca        1 CNT      0.000000
    431 C430        3.7470  -31.2400   -3.7470 ca        1 CNT      0.000000
    432 C431        5.1190  -31.2400   -1.3720 ca        1 CNT      0.000000
    433 C432        5.2540  -32.4410    0.6920 ca        1 CNT      0.000000
    434 C433        4.8960  -32.4410    2.0280 ca        1 CNT      0.000000
    435 C434        3.2260  -32.4410    4.2040 ca        1 CNT      0.000000
    436 C435        2.0280  -32.4410    4.8960 ca        1 CNT      0.000000
    437 C436       -0.6920  -32.4410    5.2540 ca        1 CNT      0.000000
    438 C437       -2.0280  -32.4410    4.8960 ca        1 CNT      0.000000
    439 C438       -4.2040  -32.4410    3.2260 ca        1 CNT      0.000000
    440 C439       -4.8960  -32.4410    2.0280 ca        1 CNT      0.000000
    441 C440       -5.2540  -32.4410   -0.6920 ca        1 CNT      0.000000
    442 C441       -4.8960  -32.4410   -2.0280 ca        1 CNT      0.000000
    443 C442       -3.2260  -32.4410   -4.2040 ca        1 CNT      0.000000
    444 C443       -2.0280  -32.4410   -4.8960 ca        1 CNT      0.000000
    445 C444        0.6920  -32.4410   -5.2540 ca        1 CNT      0.000000
    446 C445        2.0280  -32.4410   -4.8960 ca        1 CNT      0.000000
    447 C446        4.2040  -32.4410   -3.2260 ca        1 CNT      0.000000
    448 C447        4.8960  -32.4410   -2.0280 ca        1 CNT      0.000000
    449 C448        5.2990  -33.6430    0.0000 ca        1 CNT      0.000000
    450 C449        4.5890  -33.6430    2.6500 ca        1 CNT      0.000000
    451 C450        3.7470  -33.6430    3.7470 ca        1 CNT      0.000000
    452 C451        1.3720  -33.6430    5.1190 ca        1 CNT      0.000000
    453 C452        0.0000  -33.6430    5.2990 ca        1 CNT      0.000000
    454 C453       -2.6500  -33.6430    4.5890 ca        1 CNT      0.000000
    455 C454       -3.7470  -33.6430    3.7470 ca        1 CNT      0.000000
    456 C455       -5.1190  -33.6430    1.3720 ca        1 CNT      0.000000
    457 C456       -5.2990  -33.6430    0.0000 ca        1 CNT      0.000000
    458 C457       -4.5890  -33.6430   -2.6500 ca        1 CNT      0.000000
    459 C458       -3.7470  -33.6430   -3.7470 ca        1 CNT      0.000000
    460 C459       -1.3720  -33.6430   -5.1190 ca        1 CNT      0.000000
    461 C460       -0.0000  -33.6430   -5.2990 ca        1 CNT      0.000000
    462 C461        2.6500  -33.6430   -4.5890 ca        1 CNT      0.000000
    463 C462        3.7470  -33.6430   -3.7470 ca        1 CNT      0.000000
    464 C463        5.1190  -33.6430   -1.3720 ca        1 CNT      0.000000
    465 C464        5.2540  -34.8440    0.6920 ca        1 CNT      0.000000
    466 C465        4.8960  -34.8440    2.0280 ca        1 CNT      0.000000
    467 C466        3.2260  -34.8440    4.2040 ca        1 CNT      0.000000
    468 C467        2.0280  -34.8440    4.8960 ca        1 CNT      0.000000
    469 C468       -0.6920  -34.8440    5.2540 ca        1 CNT      0.000000
    470 C469       -2.0280  -34.8440    4.8960 ca        1 CNT      0.000000
    471 C470       -4.2040  -34.8440    3.2260 ca        1 CNT      0.000000
    472 C471       -4.8960  -34.8440    2.0280 ca        1 CNT      0.000000
    473 C472       -5.2540  -34.8440   -0.6920 ca        1 CNT      0.000000
    474 C473       -4.8960  -34.8440   -2.0280 ca        1 CNT      0.000000
    475 C474       -3.2260  -34.8440   -4.2040 ca        1 CNT      0.000000
    476 C475       -2.0280  -34.8440   -4.8960 ca        1 CNT      0.000000
    477 C476        0.6920  -34.8440   -5.2540 ca        1 CNT      0.000000
    478 C477        2.0280  -34.8440   -4.8960 ca        1 CNT      0.000000
    479 C478        4.2040  -34.8440   -3.2260 ca        1 CNT      0.000000
    480 C479        4.8960  -34.8440   -2.0280 ca        1 CNT      0.000000
    481 C480        5.2990  -36.0460    0.0000 ca        1 CNT      0.000000
    482 C481        4.5890  -36.0460    2.6500 ca        1 CNT      0.000000
    483 C482        3.7470  -36.0460    3.7470 ca        1 CNT      0.000000
    484 C483        1.3720  -36.0460    5.1190 ca        1 CNT      0.000000
    485 C484        0.0000  -36.0460    5.2990 ca        1 CNT      0.000000
    486 C485       -2.6500  -36.0460    4.5890 ca        1 CNT      0.000000
    487 C486       -3.7470  -36.0460    3.7470 ca        1 CNT      0.000000
    488 C487       -5.1190  -36.0460    1.3720 ca        1 CNT      0.000000
    489 C488       -5.2990  -36.0460    0.0000 ca        1 CNT      0.000000
    490 C489       -4.5890  -36.0460   -2.6500 ca        1 CNT      0.000000
    491 C490       -3.7470  -36.0460   -3.7470 ca        1 CNT      0.000000
    492 C491       -1.3720  -36.0460   -5.1190 ca        1 CNT      0.000000
    493 C492       -0.0000  -36.0460   -5.2990 ca        1 CNT      0.000000
    494 C493        2.6500  -36.0460   -4.5890 ca        1 CNT      0.000000
    495 C494        3.7470  -36.0460   -3.7470 ca        1 CNT      0.000000
    496 C495        5.1190  -36.0460   -1.3720 ca        1 CNT      0.000000
    497 C496        5.2540  -37.2470    0.6920 ca        1 CNT      0.000000
    498 C497        4.8960  -37.2470    2.0280 ca        1 CNT      0.000000
    499 C498        3.2260  -37.2470    4.2040 ca        1 CNT      0.000000
    500 C499        2.0280  -37.2470    4.8960 ca        1 CNT      0.000000
    501 C500       -0.6920  -37.2470    5.2540 ca        1 CNT      0.000000
    502 C501       -2.0280  -37.2470    4.8960 ca        1 CNT      0.000000
    503 C502       -4.2040  -37.2470    3.2260 ca        1 CNT      0.000000
    504 C503       -4.8960  -37.2470    2.0280 ca        1 CNT      0.000000
    505 C504       -5.2540  -37.2470   -0.6920 ca        1 CNT      0.000000
    506 C505       -4.8960  -37.2470   -2.0280 ca        1 CNT      0.000000
    507 C506       -3.2260  -37.2470   -4.2040 ca        1 CNT      0.000000
    508 C507       -2.0280  -37.2470   -4.8960 ca        1 CNT      0.000000
    509 C508        0.6920  -37.2470   -5.2540 ca        1 CNT      0.000000
    510 C509        2.0280  -37.2470   -4.8960 ca        1 CNT      0.000000
    511 C510        4.2040  -37.2470   -3.2260 ca        1 CNT      0.000000
    512 C511        4.8960  -37.2470   -2.0280 ca        1 CNT      0.000000
    513 C512        5.2990  -38.4490    0.0000 ca        1 CNT      0.000000
    514 C513        4.5890  -38.4490    2.6500 ca        1 CNT      0.000000
    515 C514        3.7470  -38.4490    3.7470 ca        1 CNT      0.000000
    516 C515        1.3720  -38.4490    5.1190 ca        1 CNT      0.000000
    517 C516        0.0000  -38.4490    5.2990 ca        1 CNT      0.000000
    518 C517       -2.6500  -38.4490    4.5890 ca        1 CNT      0.000000
    519 C518       -3.7470  -38.4490    3.7470 ca        1 CNT      0.000000
    520 C519       -5.1190  -38.4490    1.3720 ca        1 CNT      0.000000
    521 C520       -5.2990  -38.4490    0.0000 ca        1 CNT      0.000000
    522 C521       -4.5890  -38.4490   -2.6500 ca        1 CNT      0.000000
    523 C522       -3.7470  -38.4490   -3.7470 ca        1 CNT      0.000000
    524 C523       -1.3720  -38.4490   -5.1190 ca        1 CNT      0.000000
    525 C524       -0.0000  -38.4490   -5.2990 ca        1 CNT      0.000000
    526 C525        2.6500  -38.4490   -4.5890 ca        1 CNT      0.000000
    527 C526        3.7470  -38.4490   -3.7470 ca        1 CNT      0.000000
    528 C527        5.1190  -38.4490   -1.3720 ca        1 CNT      0.000000
    529 C528        5.2540  -39.6500    0.6920 ca        1 CNT      0.000000
    530 C529        4.8960  -39.6500    2.0280 ca        1 CNT      0.000000
    531 C530        3.2260  -39.6500    4.2040 ca        1 CNT      0.000000
    532 C531        2.0280  -39.6500    4.8960 ca        1 CNT      0.000000
    533 C532       -0.6920  -39.6500    5.2540 ca        1 CNT      0.000000
    534 C533       -2.0280  -39.6500    4.8960 ca        1 CNT      0.000000
    535 C534       -4.2040  -39.6500    3.2260 ca        1 CNT      0.000000
    536 C535       -4.8960  -39.6500    2.0280 ca        1 CNT      0.000000
    537 C536       -5.2540  -39.6500   -0.6920 ca        1 CNT      0.000000
    538 C537       -4.8960  -39.6500   -2.0280 ca        1 CNT      0.000000
    539 C538       -3.2260  -39.6500   -4.2040 ca        1 CNT      0.000000
    540 C539       -2.0280  -39.6500   -4.8960 ca        1 CNT      0.000000
    541 C540        0.6920  -39.6500   -5.2540 ca        1 CNT      0.000000
    542 C541        2.0280  -39.6500   -4.8960 ca        1 CNT      0.000000
    543 C542        4.2040  -39.6500   -3.2260 ca        1 CNT      0.000000
    544 C543        4.8960  -39.6500   -2.0280 ca        1 CNT      0.000000
    545 C544        5.2990  -40.8520    0.0000 ca        1 CNT      0.000000
    546 C545        4.5890  -40.8520    2.6500 ca        1 CNT      0.000000
    547 C546        3.7470  -40.8520    3.7470 ca        1 CNT      0.000000
    548 C547        1.3720  -40.8520    5.1190 ca        1 CNT      0.000000
    549 C548        0.0000  -40.8520    5.2990 ca        1 CNT      0.000000
    550 C549       -2.6500  -40.8520    4.5890 ca        1 CNT      0.000000
    551 C550       -3.7470  -40.8520    3.7470 ca        1 CNT      0.000000
    552 C551       -5.1190  -40.8520    1.3720 ca        1 CNT      0.000000
    553 C552       -5.2990  -40.8520    0.0000 ca        1 CNT      0.000000
    554 C553       -4.5890  -40.8520   -2.6500 ca        1 CNT      0.000000
    555 C554       -3.7470  -40.8520   -3.7470 ca        1 CNT      0.000000
    556 C555       -1.3720  -40.8520   -5.1190 ca        1 CNT      0.000000
    557 C556       -0.0000  -40.8520   -5.2990 ca        1 CNT      0.000000
    558 C557        2.6500  -40.8520   -4.5890 ca        1 CNT      0.000000
    559 C558        3.7470  -40.8520   -3.7470 ca        1 CNT      0.000000
    560 C559        5.1190  -40.8520   -1.3720 ca        1 CNT      0.000000
    561 C560        5.2540  -42.0530    0.6920 ca        1 CNT      0.000000
    562 C561        4.8960  -42.0530    2.0280 ca        1 CNT      0.000000
    563 C562        3.2260  -42.0530    4.2040 ca        1 CNT      0.000000
    564 C563        2.0280  -42.0530    4.8960 ca        1 CNT      0.000000
    565 C564       -0.6920  -42.0530    5.2540 ca        1 CNT      0.000000
    566 C565       -2.0280  -42.0530    4.8960 ca        1 CNT      0.000000
    567 C566       -4.2040  -42.0530    3.2260 ca        1 CNT      0.000000
    568 C567       -4.8960  -42.0530    2.0280 ca        1 CNT      0.000000
    569 C568       -5.2540  -42.0530   -0.6920 ca        1 CNT      0.000000
    570 C569       -4.8960  -42.0530   -2.0280 ca        1 CNT      0.000000
    571 C570       -3.2260  -42.0530   -4.2040 ca        1 CNT      0.000000
    572 C571       -2.0280  -42.0530   -4.8960 ca        1 CNT      0.000000
    573 C572        0.6920  -42.0530   -5.2540 ca        1 CNT      0.000000
    574 C573        2.0280  -42.0530   -4.8960 ca        1 CNT      0.000000
    575 C574        4.2040  -42.0530   -3.2260 ca        1 CNT      0.000000
    576 C575        4.8960  -42.0530   -2.0280 ca        1 CNT      0.000000
    577 C576        5.2990  -43.2550    0.0000 ca        1 CNT      0.000000
    578 C577        4.5890  -43.2550    2.6500 ca        1 CNT      0.000000
    579 C578        3.7470  -43.2550    3.7470 ca        1 CNT      0.000000
    580 C579        1.3720  -43.2550    5.1190 ca        1 CNT      0.000000
    581 C580        0.0000  -43.2550    5.2990 ca        1 CNT      0.000000
    582 C581       -2.6500  -43.2550    4.5890 ca        1 CNT      0.000000
    583 C582       -3.7470  -43.2550    3.7470 ca        1 CNT      0.000000
    584 C583       -5.1190  -43.2550    1.3720 ca        1 CNT      0.000000
    585 C584       -5.2990  -43.2550    0.0000 ca        1 CNT      0.000000
    586 C585       -4.5890  -43.2550   -2.6500 ca        1 CNT      0.000000
    587 C586       -3.7470  -43.2550   -3.7470 ca        1 CNT      0.000000
    588 C587       -1.3720  -43.2550   -5.1190 ca        1 CNT      0.000000
    589 C588       -0.0000  -43.2550   -5.2990 ca        1 CNT      0.000000
    590 C589        2.6500  -43.2550   -4.5890 ca        1 CNT      0.000000
    591 C590        3.7470  -43.2550   -3.7470 ca        1 CNT      0.000000
    592 C591        5.1190  -43.2550   -1.3720 ca        1 CNT      0.000000
    593 C592        5.2540  -44.4560    0.6920 ca        1 CNT      0.000000
    594 C593        4.8960  -44.4560    2.0280 ca        1 CNT      0.000000
    595 C594        3.2260  -44.4560    4.2040 ca        1 CNT      0.000000
    596 C595        2.0280  -44.4560    4.8960 ca        1 CNT      0.000000
    597 C596       -0.6920  -44.4560    5.2540 ca        1 CNT      0.000000
    598 C597       -2.0280  -44.4560    4.8960 ca        1 CNT      0.000000
    599 C598       -4.2040  -44.4560    3.2260 ca        1 CNT      0.000000
    600 C599       -4.8960  -44.4560    2.0280 ca        1 CNT      0.000000
    601 C600       -5.2540  -44.4560   -0.6920 ca        1 CNT      0.000000
    602 C601       -4.8960  -44.4560   -2.0280 ca        1 CNT      0.000000
    603 C602       -3.2260  -44.4560   -4.2040 ca        1 CNT      0.000000
    604 C603       -2.0280  -44.4560   -4.8960 ca        1 CNT      0.000000
    605 C604        0.6920  -44.4560   -5.2540 ca        1 CNT      0.000000
    606 C605        2.0280  -44.4560   -4.8960 ca        1 CNT      0.000000
    607 C606        4.2040  -44.4560   -3.2260 ca        1 CNT      0.000000
    608 C607        4.8960  -44.4560   -2.0280 ca        1 CNT      0.000000
    609 C608        5.2990  -45.6580    0.0000 ca        1 CNT      0.000000
    610 C609        4.5890  -45.6580    2.6500 ca        1 CNT      0.000000
    611 C610        3.7470  -45.6580    3.7470 ca        1 CNT      0.000000
    612 C611        1.3720  -45.6580    5.1190 ca        1 CNT      0.000000
    613 C612        0.0000  -45.6580    5.2990 ca        1 CNT      0.000000
    614 C613       -2.6500  -45.6580    4.5890 ca        1 CNT      0.000000
    615 C614       -3.7470  -45.6580    3.7470 ca        1 CNT      0.000000
    616 C615       -5.1190  -45.6580    1.3720 ca        1 CNT      0.000000
    617 C616       -5.2990  -45.6580    0.0000 ca        1 CNT      0.000000
    618 C617       -4.5890  -45.6580   -2.6500 ca        1 CNT      0.000000
    619 C618       -3.7470  -45.6580   -3.7470 ca        1 CNT      0.000000
    620 C619       -1.3720  -45.6580   -5.1190 ca        1 CNT      0.000000
    621 C620       -0.0000  -45.6580   -5.2990 ca        1 CNT      0.000000
    622 C621        2.6500  -45.6580   -4.5890 ca        1 CNT      0.000000
    623 C622        3.7470  -45.6580   -3.7470 ca        1 CNT      0.000000
    624 C623        5.1190  -45.6580   -1.3720 ca        1 CNT      0.000000
    625 C624        5.2540  -46.8590    0.6920 ca        1 CNT      0.000000
    626 C625        4.8960  -46.8590    2.0280 ca        1 CNT      0.000000
    627 C626        3.2260  -46.8590    4.2040 ca        1 CNT      0.000000
    628 C627        2.0280  -46.8590    4.8960 ca        1 CNT      0.000000
    629 C628       -0.6920  -46.8590    5.2540 ca        1 CNT      0.000000
    630 C629       -2.0280  -46.8590    4.8960 ca        1 CNT      0.000000
    631 C630       -4.2040  -46.8590    3.2260 ca        1 CNT      0.000000
    632 C631       -4.8960  -46.8590    2.0280 ca        1 CNT      0.000000
    633 C632       -5.2540  -46.8590   -0.6920 ca        1 CNT      0.000000
    634 C633       -4.8960  -46.8590   -2.0280 ca        1 CNT      0.000000
    635 C634       -3.2260  -46.8590   -4.2040 ca        1 CNT      0.000000
    636 C635       -2.0280  -46.8590   -4.8960 ca        1 CNT      0.000000
    637 C636        0.6920  -46.8590   -5.2540 ca        1 CNT      0.000000
    638 C637        2.0280  -46.8590   -4.8960 ca        1 CNT      0.000000
    639 C638        4.2040  -46.8590   -3.2260 ca        1 CNT      0.000000
    640 C639        4.8960  -46.8590   -2.0280 ca        1 CNT      0.000000
    641 C640        5.2990  -48.0610    0.0000 ca        1 CNT      0.000000
    642 C641        4.5890  -48.0610    2.6500 ca        1 CNT      0.000000
    643 C642        3.7470  -48.0610    3.7470 ca        1 CNT      0.000000
    644 C643        1.3720  -48.0610    5.1190 ca        1 CNT      0.000000
    645 C644        0.0000  -48.0610    5.2990 ca        1 CNT      0.000000
    646 C645       -2.6500  -48.0610    4.5890 ca        1 CNT      0.000000
    647 C646       -3.7470  -48.0610    3.7470 ca        1 CNT      0.000000
    648 C647       -5.1190  -48.0610    1.3720 ca        1 CNT      0.000000
    649 C648       -5.2990  -48.0610    0.0000 ca        1 CNT      0.000000
    650 C649       -4.5890  -48.0610   -2.6500 ca        1 CNT      0.000000
    651 C650       -3.7470  -48.0610   -3.7470 ca        1 CNT      0.000000
    652 C651       -1.3720  -48.0610   -5.1190 ca        1 CNT      0.000000
    653 C652       -0.0000  -48.0610   -5.2990 ca        1 CNT      0.000000
    654 C653        2.6500  -48.0610   -4.5890 ca        1 CNT      0.000000
    655 C654        3.7470  -48.0610   -3.7470 ca        1 CNT      0.000000
    656 C655        5.1190  -48.0610   -1.3720 ca        1 CNT      0.000000
    657 C656        5.2540  -49.2620    0.6920 ca        1 CNT      0.000000
    658 C657        4.8960  -49.2620    2.0280 ca        1 CNT      0.000000
    659 C658        3.2260  -49.2620    4.2040 ca        1 CNT      0.000000
    660 C659        2.0280  -49.2620    4.8960 ca        1 CNT      0.000000
    661 C660       -0.6920  -49.2620    5.2540 ca        1 CNT      0.000000
    662 C661       -2.0280  -49.2620    4.8960 ca        1 CNT      0.000000
    663 C662       -4.2040  -49.2620    3.2260 ca        1 CNT      0.000000
    664 C663       -4.8960  -49.2620    2.0280 ca        1 CNT      0.000000
    665 C664       -5.2540  -49.2620   -0.6920 ca        1 CNT      0.000000
    666 C665       -4.8960  -49.2620   -2.0280 ca        1 CNT      0.000000
    667 C666       -3.2260  -49.2620   -4.2040 ca        1 CNT      0.000000
    668 C667       -2.0280  -49.2620   -4.8960 ca        1 CNT      0.000000
    669 C668        0.6920  -49.2620   -5.2540 ca        1 CNT      0.000000
    670 C669        2.0280  -49.2620   -4.8960 ca        1 CNT      0.000000
    671 C670        4.2040  -49.2620   -3.2260 ca        1 CNT      0.000000
    672 C671        4.8960  -49.2620   -2.0280 ca        1 CNT      0.000000
    673 C672        5.2990  -50.4640    0.0000 ca        1 CNT      0.010000
    674 C673        4.5890  -50.4640    2.6500 ca        1 CNT      0.010000
    675 C674        3.7470  -50.4640    3.7470 ca        1 CNT      0.010000
    676 C675        1.3720  -50.4640    5.1190 ca        1 CNT      0.010000
    677 C676        0.0000  -50.4640    5.2990 ca        1 CNT      0.010000
    678 C677       -2.6500  -50.4640    4.5890 ca        1 CNT      0.010000
    679 C678       -3.7470  -50.4640    3.7470 ca        1 CNT      0.010000
    680 C679       -5.1190  -50.4640    1.3720 ca        1 CNT      0.010000
    681 C680       -5.2990  -50.4640    0.0000 ca        1 CNT      0.010000
    682 C681       -4.5890  -50.4640   -2.6500 ca        1 CNT      0.010000
    683 C682       -3.7470  -50.4640   -3.7470 ca        1 CNT      0.010000
    684 C683       -1.3720  -50.4640   -5.1190 ca        1 CNT      0.010000
    685 C684       -0.0000  -50.4640   -5.2990 ca        1 CNT      0.010000
    686 C685        2.6500  -50.4640   -4.5890 ca        1 CNT      0.010000
    687 C686        3.7470  -50.4640   -3.7470 ca        1 CNT      0.010000
    688 C687        5.1190  -50.4640   -1.3720 ca        1 CNT      0.010000
    689 C688        5.2540  -51.6660    0.6920 ca        1 CNT      0.240000
    690 C689        4.8960  -51.6660    2.0280 ca        1 CNT     -0.280000
    691 C690        3.2260  -51.6660    4.2040 ca        1 CNT      0.240000
    692 C691        2.0280  -51.6660    4.8960 ca        1 CNT     -0.280000
    693 C692       -0.6920  -51.6660    5.2540 ca        1 CNT      0.240000
    694 C693       -2.0280  -51.6660    4.8960 ca        1 CNT     -0.280000
    695 C694       -4.2040  -51.6660    3.2260 ca        1 CNT      0.240000
    696 C695       -4.8960  -51.6660    2.0280 ca        1 CNT     -0.280000
    697 C696       -5.2540  -51.6660   -0.6920 ca        1 CNT      0.240000
    698 C697       -4.8960  -51.6660   -2.0280 ca        1 CNT     -0.280000
    699 C698       -3.2260  -51.6660   -4.2040 ca        1 CNT      0.240000
    700 C699       -2.0280  -51.6660   -4.8960 ca        1 CNT     -0.280000
    701 C700        0.6920  -51.6660   -5.2540 ca        1 CNT      0.240000
    702 C701        2.0280  -51.6660   -4.8960 ca        1 CNT     -0.280000
    703 C702        4.2040  -51.6660   -3.2260 ca        1 CNT      0.240000
    704 C703        4.8960  -51.6660   -2.0280 ca        1 CNT     -0.280000
    705 O           6.0140    1.2380    0.0000 oh        1 CNT     -0.530000
    706 H           6.9940    1.2380    0.0000 ho        1 CNT      0.370000
    707 H1          5.0930    0.9440    2.8580 ha        1 CNT      0.180000
    708 O1          4.2530    1.2380    4.2530 oh        1 CNT     -0.530000
    709 H2          4.9460    1.2380    4.9460 ho        1 CNT      0.370000
    710 H3          1.5800    0.9440    5.6220 ha        1 CNT      0.180000
    711 O2          0.0000    1.2380    6.0140 oh        1 CNT     -0.530000
    712 H4          0.0000    1.2380    6.9940 ho        1 CNT      0.370000
    713 H5         -2.8580    0.9440    5.0930 ha        1 CNT      0.180000
    714 O3         -4.2530    1.2380    4.2530 oh        1 CNT     -0.530000
    715 H6         -4.9460    1.2380    4.9460 ho        1 CNT      0.370000
    716 H7         -5.6220    0.9440    1.5800 ha        1 CNT      0.180000
    717 O4         -6.0140    1.2380    0.0000 oh        1 CNT     -0.530000
    718 H8         -6.9940    1.2380    0.0000 ho        1 CNT      0.370000
    719 H9         -5.0930    0.9440   -2.8580 ha        1 CNT      0.180000
    720 O5         -4.2530    1.2380   -4.2530 oh        1 CNT     -0.530000
    721 H10        -4.9460    1.2380   -4.9460 ho        1 CNT      0.370000
    722 H11        -1.5800    0.9440   -5.6220 ha        1 CNT      0.180000
    723 O6         -0.0000    1.2380   -6.0140 oh        1 CNT     -0.530000
    724 H12        -0.0000    1.2380   -6.9940 ho        1 CNT      0.370000
    725 H13         2.8580    0.9440   -5.0930 ha        1 CNT      0.180000
    726 O7          4.2530    1.2380   -4.2530 oh        1 CNT     -0.530000
    727 H14         4.9460    1.2380   -4.9460 ho        1 CNT      0.370000
    728 H15         5.6220    0.9440   -1.5800 ha        1 CNT      0.180000
    729 O8          5.9690  -52.9040    0.6920 oh        1 CNT     -0.530000
    730 H16         6.9490  -52.9040    0.6920 ho        1 CNT      0.370000
    731 H17         5.4000  -52.6090    2.2370 ha        1 CNT      0.180000
    732 O9          3.7320  -52.9040    4.7100 oh        1 CNT     -0.530000
    733 H18         4.4250  -52.9040    5.4030 ho        1 CNT      0.370000
    734 H19         2.2370  -52.6090    5.4000 ha        1 CNT      0.180000
    735 O10        -0.6920  -52.9040    5.9690 oh        1 CNT     -0.530000
    736 H20        -0.6920  -52.9040    6.9490 ho        1 CNT      0.370000
    737 H21        -2.2370  -52.6090    5.4000 ha        1 CNT      0.180000
    738 O11        -4.7100  -52.9040    3.7320 oh        1 CNT     -0.530000
    739 H22        -5.4030  -52.9040    4.4250 ho        1 CNT      0.370000
    740 H23        -5.4000  -52.6090    2.2370 ha        1 CNT      0.180000
    741 O12        -5.9690  -52.9040   -0.6920 oh        1 CNT     -0.530000
    742 H24        -6.9490  -52.9040   -0.6920 ho        1 CNT      0.370000
    743 H25        -5.4000  -52.6090   -2.2370 ha        1 CNT      0.180000
    744 O13        -3.7320  -52.9040   -4.7100 oh        1 CNT     -0.530000
    745 H26        -4.4250  -52.9040   -5.4030 ho        1 CNT      0.370000
    746 H27        -2.2370  -52.6090   -5.4000 ha        1 CNT      0.180000
    747 O14         0.6920  -52.9040   -5.9690 oh        1 CNT     -0.530000
    748 H28         0.6920  -52.9040   -6.9490 ho        1 CNT      0.370000
    749 H29         2.2370  -52.6090   -5.4000 ha        1 CNT      0.180000
    750 O15         4.7100  -52.9040   -3.7320 oh        1 CNT     -0.530000
    751 H30         5.4030  -52.9040   -4.4250 ho        1 CNT      0.370000
    752 H31         5.4000  -52.6090   -2.2370 ha        1 CNT      0.180000
@<TRIPOS>BOND
     1    1   16 ar  
     2    1   17 ar  
     3    1  705 1   
     4    2    3 ar  
     5    2   18 ar  
     6    2  707 1   
     7    3   19 ar  
     8    3  708 1   
     9    4    5 ar  
    10    4   20 ar  
    11    4  710 1   
    12    5   21 ar  
    13    5  711 1   
    14    6    7 ar  
    15    6   22 ar  
    16    6  713 1   
    17    7   23 ar  
    18    7  714 1   
    19    8    9 ar  
    20    8   24 ar  
    21    8  716 1   
    22    9   25 ar  
    23    9  717 1   
    24   10   11 ar  
    25   10   26 ar  
    26   10  719 1   
    27   11   27 ar  
    28   11  720 1   
    29   12   13 ar  
    30   12   28 ar  
    31   12  722 1   
    32   13   29 ar  
    33   13  723 1   
    34   14   15 ar  
    35   14   30 ar  
    36   14  725 1   
    37   15   31 ar  
    38   15  726 1   
    39   16   32 ar  
    40   16  728 1   
    41   17   18 ar  
    42   17   33 ar  
    43   18   34 ar  
    44   19   20 ar  
    45   19   35 ar  
    46   20   36 ar  
    47   21   22 ar  
    48   21   37 ar  
    49   22   38 ar  
    50   23   24 ar  
    51   23   39 ar  
    52   24   40 ar  
    53   25   26 ar  
    54   25   41 ar  
    55   26   42 ar  
    56   27   28 ar  
    57   27   43 ar  
    58   28   44 ar  
    59   29   30 ar  
    60   29   45 ar  
    61   30   46 ar  
    62   31   32 ar  
    63   31   47 ar  
    64   32   48 ar  
    65   33   48 ar  
    66   33   49 ar  
    67   34   35 ar  
    68   34   50 ar  
    69   35   51 ar  
    70   36   37 ar  
    71   36   52 ar  
    72   37   53 ar  
    73   38   39 ar  
    74   38   54 ar  
    75   39   55 ar  
    76   40   41 ar  
    77   40   56 ar  
    78   41   57 ar  
    79   42   43 ar  
    80   42   58 ar  
    81   43   59 ar  
    82   44   45 ar  
    83   44   60 ar  
    84   45   61 ar  
    85   46   47 ar  
    86   46   62 ar  
    87   47   63 ar  
    88   48   64 ar  
    89   49   50 ar  
    90   49   65 ar  
    91   50   66 ar  
    92   51   52 ar  
    93   51   67 ar  
    94   52   68 ar  
    95   53   54 ar  
    96   53   69 ar  
    97   54   70 ar  
    98   55   56 ar  
    99   55   71 ar  
   100   56   72 ar  
   101   57   58 ar  
   102   57   73 ar  
   103   58   74 ar  
   104   59   60 ar  
   105   59   75 ar  
   106   60   76 ar  
   107   61   62 ar  
   108   61   77 ar  
   109   62   78 ar  
   110   63   64 ar  
   111   63   79 ar  
   112   64   80 ar  
   113   65   80 ar  
   114   65   81 ar  
   115   66   67 ar  
   116   66   82 ar  
   117   67   83 ar  
   118   68   69 ar  
   119   68   84 ar  
   120   69   85 ar  
   121   70   71 ar  
   122   70   86 ar  
   123   71   87 ar  
   124   72   73 ar  
   125   72   88 ar  
   126   73   89 ar  
   127   74   75 ar  
   128   74   90 ar  
   129   75   91 ar  
   130   76   77 ar  
   131   76   92 ar  
   132   77   93 ar  
   133   78   79 ar  
   134   78   94 ar  
   135   79   95 ar  
   136   80   96 ar  
   137   81   82 ar  
   138   81   97 ar  
   139   82   98 ar  
   140   83   84 ar  
   141   83   99 ar  
   142   84  100 ar  
   143   85   86 ar  
   144   85  101 ar  
   145   86  102 ar  
   146   87   88 ar  
   147   87  103 ar  
   148   88  104 ar  
   149   89   90 ar  
   150   89  105 ar  
   151   90  106 ar  
   152   91   92 ar  
   153   91  107 ar  
   154   92  108 ar  
   155   93   94 ar  
   156   93  109 ar  
   157   94  110 ar  
   158   95   96 ar  
   159   95  111 ar  
   160   96  112 ar  
   161   97  112 ar  
   162   97  113 ar  
   163   98   99 ar  
   164   98  114 ar  
   165   99  115 ar  
   166  100  101 ar  
   167  100  116 ar  
   168  101  117 ar  
   169  102  103 ar  
   170  102  118 ar  
   171  103  119 ar  
   172  104  105 ar  
   173  104  120 ar  
   174  105  121 ar  
   175  106  107 ar  
   176  106  122 ar  
   177  107  123 ar  
   178  108  109 ar  
   179  108  124 ar  
   180  109  125 ar  
   181  110  111 ar  
   182  110  126 ar  
   183  111  127 ar  
   184  112  128 ar  
   185  113  114 ar  
   186  113  129 ar  
   187  114  130 ar  
   188  115  116 ar  
   189  115  131 ar  
   190  116  132 ar  
   191  117  118 ar  
   192  117  133 ar  
   193  118  134 ar  
   194  119  120 ar  
   195  119  135 ar  
   196  120  136 ar  
   197  121  122 ar  
   198  121  137 ar  
   199  122  138 ar  
   200  123  124 ar  
   201  123  139 ar  
   202  124  140 ar  
   203  125  126 ar  
   204  125  141 ar  
   205  126  142 ar  
   206  127  128 ar  
   207  127  143 ar  
   208  128  144 ar  
   209  129  144 ar  
   210  129  145 ar  
   211  130  131 ar  
   212  130  146 ar  
   213  131  147 ar  
   214  132  133 ar  
   215  132  148 ar  
   216  133  149 ar  
   217  134  135 ar  
   218  134  150 ar  
   219  135  151 ar  
   220  136  137 ar  
   221  136  152 ar  
   222  137  153 ar  
   223  138  139 ar  
   224  138  154 ar  
   225  139  155 ar  
   226  140  141 ar  
   227  140  156 ar  
   228  141  157 ar  
   229  142  143 ar  
   230  142  158 ar  
   231  143  159 ar  
   232  144  160 ar  
   233  145  146 ar  
   234  145  161 ar  
   235  146  162 ar  
   236  147  148 ar  
   237  147  163 ar  
   238  148  164 ar  
   239  149  150 ar  
   240  149  165 ar  
   241  150  166 ar  
   242  151  152 ar  
   243  151  167 ar  
   244  152  168 ar  
   245  153  154 ar  
   246  153  169 ar  
   247  154  170 ar  
   248  155  156 ar  
   249  155  171 ar  
   250  156  172 ar  
   251  157  158 ar  
   252  157  173 ar  
   253  158  174 ar  
   254  159  160 ar  
   255  159  175 ar  
   256  160  176 ar  
   257  161  176 ar  
   258  161  177 ar  
   259  162  163 ar  
   260  162  178 ar  
   261  163  179 ar  
   262  164  165 ar  
   263  164  180 ar  
   264  165  181 ar  
   265  166  167 ar  
   266  166  182 ar  
   267  167  183 ar  
   268  168  169 ar  
   269  168  184 ar  
   270  169  185 ar  
   271  170  171 ar  
   272  170  186 ar  
   273  171  187 ar  
   274  172  173 ar  
   275  172  188 ar  
   276  173  189 ar  
   277  174  175 ar  
   278  174  190 ar  
   279  175  191 ar  
   280  176  192 ar  
   281  177  178 ar  
   282  177  193 ar  
   283  178  194 ar  
   284  179  180 ar  
   285  179  195 ar  
   286  180  196 ar  
   287  181  182 ar  
   288  181  197 ar  
   289  182  198 ar  
   290  183  184 ar  
   291  183  199 ar  
   292  184  200 ar  
   293  185  186 ar  
   294  185  201 ar  
   295  186  202 ar  
   296  187  188 ar  
   297  187  203 ar  
   298  188  204 ar  
   299  189  190 ar  
   300  189  205 ar  
   301  190  206 ar  
   302  191  192 ar  
   303  191  207 ar  
   304  192  208 ar  
   305  193  208 ar  
   306  193  209 ar  
   307  194  195 ar  
   308  194  210 ar  
   309  195  211 ar  
   310  196  197 ar  
   311  196  212 ar  
   312  197  213 ar  
   313  198  199 ar  
   314  198  214 ar  
   315  199  215 ar  
   316  200  201 ar  
   317  200  216 ar  
   318  201  217 ar  
   319  202  203 ar  
   320  202  218 ar  
   321  203  219 ar  
   322  204  205 ar  
   323  204  220 ar  
   324  205  221 ar  
   325  206  207 ar  
   326  206  222 ar  
   327  207  223 ar  
   328  208  224 ar  
   329  209  210 ar  
   330  209  225 ar  
   331  210  226 ar  
   332  211  212 ar  
   333  211  227 ar  
   334  212  228 ar  
   335  213  214 ar  
   336  213  229 ar  
   337  214  230 ar  
   338  215  216 ar  
   339  215  231 ar  
   340  216  232 ar  
   341  217  218 ar  
   342  217  233 ar  
   343  218  234 ar  
   344  219  220 ar  
   345  219  235 ar  
   346  220  236 ar  
   347  221  222 ar  
   348  221  237 ar  
   349  222  238 ar  
   350  223  224 ar  
   351  223  239 ar  
   352  224  240 ar  
   353  225  240 ar  
   354  225  241 ar  
   355  226  227 ar  
   356  226  242 ar  
   357  227  243 ar  
   358  228  229 ar  
   359  228  244 ar  
   360  229  245 ar  
   361  230  231 ar  
   362  230  246 ar  
   363  231  247 ar  
   364  232  233 ar  
   365  232  248 ar  
   366  233  249 ar  
   367  234  235 ar  
   368  234  250 ar  
   369  235  251 ar  
   370  236  237 ar  
   371  236  252 ar  
   372  237  253 ar  
   373  238  239 ar  
   374  238  254 ar  
   375  239  255 ar  
   376  240  256 ar  
   377  241  242 ar  
   378  241  257 ar  
   379  242  258 ar  
   380  243  244 ar  
   381  243  259 ar  
   382  244  260 ar  
   383  245  246 ar  
   384  245  261 ar  
   385  246  262 ar  
   386  247  248 ar  
   387  247  263 ar  
   388  248  264 ar  
   389  249  250 ar  
   390  249  265 ar  
   391  250  266 ar  
   392  251  252 ar  
   393  251  267 ar  
   394  252  268 ar  
   395  253  254 ar  
   396  253  269 ar  
   397  254  270 ar  
   398  255  256 ar  
   399  255  271 ar  
   400  256  272 ar  
   401  257  272 ar  
   402  257  273 ar  
   403  258  259 ar  
   404  258  274 ar  
   405  259  275 ar  
   406  260  261 ar  
   407  260  276 ar  
   408  261  277 ar  
   409  262  263 ar  
   410  262  278 ar  
   411  263  279 ar  
   412  264  265 ar  
   413  264  280 ar  
   414  265  281 ar  
   415  266  267 ar  
   416  266  282 ar  
   417  267  283 ar  
   418  268  269 ar  
   419  268  284 ar  
   420  269  285 ar  
   421  270  271 ar  
   422  270  286 ar  
   423  271  287 ar  
   424  272  288 ar  
   425  273  274 ar  
   426  273  289 ar  
   427  274  290 ar  
   428  275  276 ar  
   429  275  291 ar  
   430  276  292 ar  
   431  277  278 ar  
   432  277  293 ar  
   433  278  294 ar  
   434  279  280 ar  
   435  279  295 ar  
   436  280  296 ar  
   437  281  282 ar  
   438  281  297 ar  
   439  282  298 ar  
   440  283  284 ar  
   441  283  299 ar  
   442  284  300 ar  
   443  285  286 ar  
   444  285  301 ar  
   445  286  302 ar  
   446  287  288 ar  
   447  287  303 ar  
   448  288  304 ar  
   449  289  304 ar  
   450  289  305 ar  
   451  290  291 ar  
   452  290  306 ar  
   453  291  307 ar  
   454  292  293 ar  
   455  292  308 ar  
   456  293  309 ar  
   457  294  295 ar  
   458  294  310 ar  
   459  295  311 ar  
   460  296  297 ar  
   461  296  312 ar  
   462  297  313 ar  
   463  298  299 ar  
   464  298  314 ar  
   465  299  315 ar  
   466  300  301 ar  
   467  300  316 ar  
   468  301  317 ar  
   469  302  303 ar  
   470  302  318 ar  
   471  303  319 ar  
   472  304  320 ar  
   473  305  306 ar  
   474  305  321 ar  
   475  306  322 ar  
   476  307  308 ar  
   477  307  323 ar  
   478  308  324 ar  
   479  309  310 ar  
   480  309  325 ar  
   481  310  326 ar  
   482  311  312 ar  
   483  311  327 ar  
   484  312  328 ar  
   485  313  314 ar  
   486  313  329 ar  
   487  314  330 ar  
   488  315  316 ar  
   489  315  331 ar  
   490  316  332 ar  
   491  317  318 ar  
   492  317  333 ar  
   493  318  334 ar  
   494  319  320 ar  
   495  319  335 ar  
   496  320  336 ar  
   497  321  336 ar  
   498  321  337 ar  
   499  322  323 ar  
   500  322  338 ar  
   501  323  339 ar  
   502  324  325 ar  
   503  324  340 ar  
   504  325  341 ar  
   505  326  327 ar  
   506  326  342 ar  
   507  327  343 ar  
   508  328  329 ar  
   509  328  344 ar  
   510  329  345 ar  
   511  330  331 ar  
   512  330  346 ar  
   513  331  347 ar  
   514  332  333 ar  
   515  332  348 ar  
   516  333  349 ar  
   517  334  335 ar  
   518  334  350 ar  
   519  335  351 ar  
   520  336  352 ar  
   521  337  338 ar  
   522  337  353 ar  
   523  338  354 ar  
   524  339  340 ar  
   525  339  355 ar  
   526  340  356 ar  
   527  341  342 ar  
   528  341  357 ar  
   529  342  358 ar  
   530  343  344 ar  
   531  343  359 ar  
   532  344  360 ar  
   533  345  346 ar  
   534  345  361 ar  
   535  346  362 ar  
   536  347  348 ar  
   537  347  363 ar  
   538  348  364 ar  
   539  349  350 ar  
   540  349  365 ar  
   541  350  366 ar  
   542  351  352 ar  
   543  351  367 ar  
   544  352  368 ar  
   545  353  368 ar  
   546  353  369 ar  
   547  354  355 ar  
   548  354  370 ar  
   549  355  371 ar  
   550  356  357 ar  
   551  356  372 ar  
   552  357  373 ar  
   553  358  359 ar  
   554  358  374 ar  
   555  359  375 ar  
   556  360  361 ar  
   557  360  376 ar  
   558  361  377 ar  
   559  362  363 ar  
   560  362  378 ar  
   561  363  379 ar  
   562  364  365 ar  
   563  364  380 ar  
   564  365  381 ar  
   565  366  367 ar  
   566  366  382 ar  
   567  367  383 ar  
   568  368  384 ar  
   569  369  370 ar  
   570  369  385 ar  
   571  370  386 ar  
   572  371  372 ar  
   573  371  387 ar  
   574  372  388 ar  
   575  373  374 ar  
   576  373  389 ar  
   577  374  390 ar  
   578  375  376 ar  
   579  375  391 ar  
   580  376  392 ar  
   581  377  378 ar  
   582  377  393 ar  
   583  378  394 ar  
   584  379  380 ar  
   585  379  395 ar  
   586  380  396 ar  
   587  381  382 ar  
   588  381  397 ar  
   589  382  398 ar  
   590  383  384 ar  
   591  383  399 ar  
   592  384  400 ar  
   593  385  400 ar  
   594  385  401 ar  
   595  386  387 ar  
   596  386  402 ar  
   597  387  403 ar  
   598  388  389 ar  
   599  388  404 ar  
   600  389  405 ar  
   601  390  391 ar  
   602  390  406 ar  
   603  391  407 ar  
   604  392  393 ar  
   605  392  408 ar  
   606  393  409 ar  
   607  394  395 ar  
   608  394  410 ar  
   609  395  411 ar  
   610  396  397 ar  
   611  396  412 ar  
   612  397  413 ar  
   613  398  399 ar  
   614  398  414 ar  
   615  399  415 ar  
   616  400  416 ar  
   617  401  402 ar  
   618  401  417 ar  
   619  402  418 ar  
   620  403  404 ar  
   621  403  419 ar  
   622  404  420 ar  
   623  405  406 ar  
   624  405  421 ar  
   625  406  422 ar  
   626  407  408 ar  
   627  407  423 ar  
   628  408  424 ar  
   629  409  410 ar  
   630  409  425 ar  
   631  410  426 ar  
   632  411  412 ar  
   633  411  427 ar  
   634  412  428 ar  
   635  413  414 ar  
   636  413  429 ar  
   637  414  430 ar  
   638  415  416 ar  
   639  415  431 ar  
   640  416  432 ar  
   641  417  432 ar  
   642  417  433 ar  
   643  418  419 ar  
   644  418  434 ar  
   645  419  435 ar  
   646  420  421 ar  
   647  420  436 ar  
   648  421  437 ar  
   649  422  423 ar  
   650  422  438 ar  
   651  423  439 ar  
   652  424  425 ar  
   653  424  440 ar  
   654  425  441 ar  
   655  426  427 ar  
   656  426  442 ar  
   657  427  443 ar  
   658  428  429 ar  
   659  428  444 ar  
   660  429  445 ar  
   661  430  431 ar  
   662  430  446 ar  
   663  431  447 ar  
   664  432  448 ar  
   665  433  434 ar  
   666  433  449 ar  
   667  434  450 ar  
   668  435  436 ar  
   669  435  451 ar  
   670  436  452 ar  
   671  437  438 ar  
   672  437  453 ar  
   673  438  454 ar  
   674  439  440 ar  
   675  439  455 ar  
   676  440  456 ar  
   677  441  442 ar  
   678  441  457 ar  
   679  442  458 ar  
   680  443  444 ar  
   681  443  459 ar  
   682  444  460 ar  
   683  445  446 ar  
   684  445  461 ar  
   685  446  462 ar  
   686  447  448 ar  
   687  447  463 ar  
   688  448  464 ar  
   689  449  464 ar  
   690  449  465 ar  
   691  450  451 ar  
   692  450  466 ar  
   693  451  467 ar  
   694  452  453 ar  
   695  452  468 ar  
   696  453  469 ar  
   697  454  455 ar  
   698  454  470 ar  
   699  455  471 ar  
   700  456  457 ar  
   701  456  472 ar  
   702  457  473 ar  
   703  458  459 ar  
   704  458  474 ar  
   705  459  475 ar  
   706  460  461 ar  
   707  460  476 ar  
   708  461  477 ar  
   709  462  463 ar  
   710  462  478 ar  
   711  463  479 ar  
   712  464  480 ar  
   713  465  466 ar  
   714  465  481 ar  
   715  466  482 ar  
   716  467  468 ar  
   717  467  483 ar  
   718  468  484 ar  
   719  469  470 ar  
   720  469  485 ar  
   721  470  486 ar  
   722  471  472 ar  
   723  471  487 ar  
   724  472  488 ar  
   725  473  474 ar  
   726  473  489 ar  
   727  474  490 ar  
   728  475  476 ar  
   729  475  491 ar  
   730  476  492 ar  
   731  477  478 ar  
   732  477  493 ar  
   733  478  494 ar  
   734  479  480 ar  
   735  479  495 ar  
   736  480  496 ar  
   737  481  496 ar  
   738  481  497 ar  
   739  482  483 ar  
   740  482  498 ar  
   741  483  499 ar  
   742  484  485 ar  
   743  484  500 ar  
   744  485  501 ar  
   745  486  487 ar  
   746  486  502 ar  
   747  487  503 ar  
   748  488  489 ar  
   749  488  504 ar  
   750  489  505 ar  
   751  490  491 ar  
   752  490  506 ar  
   753  491  507 ar  
   754  492  493 ar  
   755  492  508 ar  
   756  493  509 ar  
   757  494  495 ar  
   758  494  510 ar  
   759  495  511 ar  
   760  496  512 ar  
   761  497  498 ar  
   762  497  513 ar  
   763  498  514 ar  
   764  499  500 ar  
   765  499  515 ar  
   766  500  516 ar  
   767  501  502 ar  
   768  501  517 ar  
   769  502  518 ar  
   770  503  504 ar  
   771  503  519 ar  
   772  504  520 ar  
   773  505  506 ar  
   774  505  521 ar  
   775  506  522 ar  
   776  507  508 ar  
   777  507  523 ar  
   778  508  524 ar  
   779  509  510 ar  
   780  509  525 ar  
   781  510  526 ar  
   782  511  512 ar  
   783  511  527 ar  
   784  512  528 ar  
   785  513  528 ar  
   786  513  529 ar  
   787  514  515 ar  
   788  514  530 ar  
   789  515  531 ar  
   790  516  517 ar  
   791  516  532 ar  
   792  517  533 ar  
   793  518  519 ar  
   794  518  534 ar  
   795  519  535 ar  
   796  520  521 ar  
   797  520  536 ar  
   798  521  537 ar  
   799  522  523 ar  
   800  522  538 ar  
   801  523  539 ar  
   802  524  525 ar  
   803  524  540 ar  
   804  525  541 ar  
   805  526  527 ar  
   806  526  542 ar  
   807  527  543 ar  
   808  528  544 ar  
   809  529  530 ar  
   810  529  545 ar  
   811  530  546 ar  
   812  531  532 ar  
   813  531  547 ar  
   814  532  548 ar  
   815  533  534 ar  
   816  533  549 ar  
   817  534  550 ar  
   818  535  536 ar  
   819  535  551 ar  
   820  536  552 ar  
   821  537  538 ar  
   822  537  553 ar  
   823  538  554 ar  
   824  539  540 ar  
   825  539  555 ar  
   826  540  556 ar  
   827  541  542 ar  
   828  541  557 ar  
   829  542  558 ar  
   830  543  544 ar  
   831  543  559 ar  
   832  544  560 ar  
   833  545  560 ar  
   834  545  561 ar  
   835  546  547 ar  
   836  546  562 ar  
   837  547  563 ar  
   838  548  549 ar  
   839  548  564 ar  
   840  549  565 ar  
   841  550  551 ar  
   842  550  566 ar  
   843  551  567 ar  
   844  552  553 ar  
   845  552  568 ar  
   846  553  569 ar  
   847  554  555 ar  
   848  554  570 ar  
   849  555  571 ar  
   850  556  557 ar  
   851  556  572 ar  
   852  557  573 ar  
   853  558  559 ar  
   854  558  574 ar  
   855  559  575 ar  
   856  560  576 ar  
   857  561  562 ar  
   858  561  577 ar  
   859  562  578 ar  
   860  563  564 ar  
   861  563  579 ar  
   862  564  580 ar  
   863  565  566 ar  
   864  565  581 ar  
   865  566  582 ar  
   866  567  568 ar  
   867  567  583 ar  
   868  568  584 ar  
   869  569  570 ar  
   870  569  585 ar  
   871  570  586 ar  
   872  571  572 ar  
   873  571  587 ar  
   874  572  588 ar  
   875  573  574 ar  
   876  573  589 ar  
   877  574  590 ar  
   878  575  576 ar  
   879  575  591 ar  
   880  576  592 ar  
   881  577  592 ar  
   882  577  593 ar  
   883  578  579 ar  
   884  578  594 ar  
   885  579  595 ar  
   886  580  581 ar  
   887  580  596 ar  
   888  581  597 ar  
   889  582  583 ar  
   890  582  598 ar  
   891  583  599 ar  
   892  584  585 ar  
   893  584  600 ar  
   894  585  601 ar  
   895  586  587 ar  
   896  586  602 ar  
   897  587  603 ar  
   898  588  589 ar  
   899  588  604 ar  
   900  589  605 ar  
   901  590  591 ar  
   902  590  606 ar  
   903  591  607 ar  
   904  592  608 ar  
   905  593  594 ar  
   906  593  609 ar  
   907  594  610 ar  
   908  595  596 ar  
   909  595  611 ar  
   910  596  612 ar  
   911  597  598 ar  
   912  597  613 ar  
   913  598  614 ar  
   914  599  600 ar  
   915  599  615 ar  
   916  600  616 ar  
   917  601  602 ar  
   918  601  617 ar  
   919  602  618 ar  
   920  603  604 ar  
   921  603  619 ar  
   922  604  620 ar  
   923  605  606 ar  
   924  605  621 ar  
   925  606  622 ar  
   926  607  608 ar  
   927  607  623 ar  
   928  608  624 ar  
   929  609  624 ar  
   930  609  625 ar  
   931  610  611 ar  
   932  610  626 ar  
   933  611  627 ar  
   934  612  613 ar  
   935  612  628 ar  
   936  613  629 ar  
   937  614  615 ar  
   938  614  630 ar  
   939  615  631 ar  
   940  616  617 ar  
   941  616  632 ar  
   942  617  633 ar  
   943  618  619 ar  
   944  618  634 ar  
   945  619  635 ar  
   946  620  621 ar  
   947  620  636 ar  
   948  621  637 ar  
   949  622  623 ar  
   950  622  638 ar  
   951  623  639 ar  
   952  624  640 ar  
   953  625  626 ar  
   954  625  641 ar  
   955  626  642 ar  
   956  627  628 ar  
   957  627  643 ar  
   958  628  644 ar  
   959  629  630 ar  
   960  629  645 ar  
   961  630  646 ar  
   962  631  632 ar  
   963  631  647 ar  
   964  632  648 ar  
   965  633  634 ar  
   966  633  649 ar  
   967  634  650 ar  
   968  635  636 ar  
   969  635  651 ar  
   970  636  652 ar  
   971  637  638 ar  
   972  637  653 ar  
   973  638  654 ar  
   974  639  640 ar  
   975  639  655 ar  
   976  640  656 ar  
   977  641  656 ar  
   978  641  657 ar  
   979  642  643 ar  
   980  642  658 ar  
   981  643  659 ar  
   982  644  645 ar  
   983  644  660 ar  
   984  645  661 ar  
   985  646  647 ar  
   986  646  662 ar  
   987  647  663 ar  
   988  648  649 ar  
   989  648  664 ar  
   990  649  665 ar  
   991  650  651 ar  
   992  650  666 ar  
   993  651  667 ar  
   994  652  653 ar  
   995  652  668 ar  
   996  653  669 ar  
   997  654  655 ar  
   998  654  670 ar  
   999  655  671 ar  
  1000  656  672 ar  
  1001  657  658 ar  
  1002  657  673 ar  
  1003  658  674 ar  
  1004  659  660 ar  
  1005  659  675 ar  
  1006  660  676 ar  
  1007  661  662 ar  
  1008  661  677 ar  
  1009  662  678 ar  
  1010  663  664 ar  
  1011  663  679 ar  
  1012  664  680 ar  
  1013  665  666 ar  
  1014  665  681 ar  
  1015  666  682 ar  
  1016  667  668 ar  
  1017  667  683 ar  
  1018  668  684 ar  
  1019  669  670 ar  
  1020  669  685 ar  
  1021  670  686 ar  
  1022  671  672 ar  
  1023  671  687 ar  
  1024  672  688 ar  
  1025  673  688 ar  
  1026  673  689 ar  
  1027  674  675 ar  
  1028  674  690 ar  
  1029  675  691 ar  
  1030  676  677 ar  
  1031  676  692 ar  
  1032  677  693 ar  
  1033  678  679 ar  
  1034  678  694 ar  
  1035  679  695 ar  
  1036  680  681 ar  
  1037  680  696 ar  
  1038  681  697 ar  
  1039  682  683 ar  
  1040  682  698 ar  
  1041  683  699 ar  
  1042  684  685 ar  
  1043  684  700 ar  
  1044  685  701 ar  
  1045  686  687 ar  
  1046  686  702 ar  
  1047  687  703 ar  
  1048  688  704 ar  
  1049  689  690 ar  
  1050  689  729 1   
  1051  690  731 1   
  1052  691  692 ar  
  1053  691  732 1   
  1054  692  734 1   
  1055  693  694 ar  
  1056  693  735 1   
  1057  694  737 1   
  1058  695  696 ar  
  1059  695  738 1   
  1060  696  740 1   
  1061  697  698 ar  
  1062  697  741 1   
  1063  698  743 1   
  1064  699  700 ar  
  1065  699  744 1   
  1066  700  746 1   
  1067  701  702 ar  
  1068  701  747 1   
  1069  702  749 1   
  1070  703  704 ar  
  1071  703  750 1   
  1072  704  752 1   
  1073  705  706 1   
  1074  708  709 1   
  1075  711  712 1   
  1076  714  715 1   
  1077  717  718 1   
  1078  720  721 1   
  1079  723  724 1   
  1080  726  727 1   
  1081  729  730 1   
  1082  732  733 1   
  1083  735  736 1   
  1084  738  739 1   
  1085  741  742 1   
  1086  744  745 1   
  1087  747  748 1   
  1088  750  751 1   
@<TRIPOS>SUBSTRUCTURE
     1 CNT         1 TEMP              0 ****  ****    0 ROOT
