@<TRIPOS>MOLECULE
CNT
 688 992 0 0 0
SMALL
USER_CHARGES

@<TRIPOS>ATOM
      1     C    5.299    0.000    0.000    C.ar       1    CNT1    0.240
      2     C    4.589    0.000    2.650    C.ar       1    CNT1   -0.280
      3     C    3.747    0.000    3.747    C.ar       1    CNT1    0.240
      4     C    1.372    0.000    5.119    C.ar       1    CNT1   -0.280
      5     C    0.000    0.000    5.299    C.ar       1    CNT1    0.240
      6     C   -2.650    0.000    4.589    C.ar       1    CNT1   -0.280
      7     C   -3.747    0.000    3.747    C.ar       1    CNT1    0.240
      8     C   -5.119    0.000    1.372    C.ar       1    CNT1   -0.280
      9     C   -5.299    0.000    0.000    C.ar       1    CNT1    0.240
     10     C   -4.589    0.000   -2.650    C.ar       1    CNT1   -0.280
     11     C   -3.747    0.000   -3.747    C.ar       1    CNT1    0.240
     12     C   -1.372    0.000   -5.119    C.ar       1    CNT1   -0.280
     13     C   -0.000    0.000   -5.299    C.ar       1    CNT1    0.240
     14     C    2.650    0.000   -4.589    C.ar       1    CNT1   -0.280
     15     C    3.747    0.000   -3.747    C.ar       1    CNT1    0.240
     16     C    5.119    0.000   -1.372    C.ar       1    CNT1   -0.280
     17     C    5.254   -1.202    0.692    C.ar       1    CNT1    0.010
     18     C    4.896   -1.202    2.028    C.ar       1    CNT1    0.010
     19     C    3.226   -1.202    4.204    C.ar       1    CNT1    0.010
     20     C    2.028   -1.202    4.896    C.ar       1    CNT1    0.010
     21     C   -0.692   -1.202    5.254    C.ar       1    CNT1    0.010
     22     C   -2.028   -1.202    4.896    C.ar       1    CNT1    0.010
     23     C   -4.204   -1.202    3.226    C.ar       1    CNT1    0.010
     24     C   -4.896   -1.202    2.028    C.ar       1    CNT1    0.010
     25     C   -5.254   -1.202   -0.692    C.ar       1    CNT1    0.010
     26     C   -4.896   -1.202   -2.028    C.ar       1    CNT1    0.010
     27     C   -3.226   -1.202   -4.204    C.ar       1    CNT1    0.010
     28     C   -2.028   -1.202   -4.896    C.ar       1    CNT1    0.010
     29     C    0.692   -1.202   -5.254    C.ar       1    CNT1    0.010
     30     C    2.028   -1.202   -4.896    C.ar       1    CNT1    0.010
     31     C    4.204   -1.202   -3.226    C.ar       1    CNT1    0.010
     32     C    4.896   -1.202   -2.028    C.ar       1    CNT1    0.010
     33     C    5.299   -2.403    0.000    C.ar       1    CNT1    0.000
     34     C    4.589   -2.403    2.650    C.ar       1    CNT1    0.000
     35     C    3.747   -2.403    3.747    C.ar       1    CNT1    0.000
     36     C    1.372   -2.403    5.119    C.ar       1    CNT1    0.000
     37     C    0.000   -2.403    5.299    C.ar       1    CNT1    0.000
     38     C   -2.650   -2.403    4.589    C.ar       1    CNT1    0.000
     39     C   -3.747   -2.403    3.747    C.ar       1    CNT1    0.000
     40     C   -5.119   -2.403    1.372    C.ar       1    CNT1    0.000
     41     C   -5.299   -2.403    0.000    C.ar       1    CNT1    0.000
     42     C   -4.589   -2.403   -2.650    C.ar       1    CNT1    0.000
     43     C   -3.747   -2.403   -3.747    C.ar       1    CNT1    0.000
     44     C   -1.372   -2.403   -5.119    C.ar       1    CNT1    0.000
     45     C   -0.000   -2.403   -5.299    C.ar       1    CNT1    0.000
     46     C    2.650   -2.403   -4.589    C.ar       1    CNT1    0.000
     47     C    3.747   -2.403   -3.747    C.ar       1    CNT1    0.000
     48     C    5.119   -2.403   -1.372    C.ar       1    CNT1    0.000
     49     C    5.254   -3.605    0.692    C.ar       1    CNT1    0.000
     50     C    4.896   -3.605    2.028    C.ar       1    CNT1    0.000
     51     C    3.226   -3.605    4.204    C.ar       1    CNT1    0.000
     52     C    2.028   -3.605    4.896    C.ar       1    CNT1    0.000
     53     C   -0.692   -3.605    5.254    C.ar       1    CNT1    0.000
     54     C   -2.028   -3.605    4.896    C.ar       1    CNT1    0.000
     55     C   -4.204   -3.605    3.226    C.ar       1    CNT1    0.000
     56     C   -4.896   -3.605    2.028    C.ar       1    CNT1    0.000
     57     C   -5.254   -3.605   -0.692    C.ar       1    CNT1    0.000
     58     C   -4.896   -3.605   -2.028    C.ar       1    CNT1    0.000
     59     C   -3.226   -3.605   -4.204    C.ar       1    CNT1    0.000
     60     C   -2.028   -3.605   -4.896    C.ar       1    CNT1    0.000
     61     C    0.692   -3.605   -5.254    C.ar       1    CNT1    0.000
     62     C    2.028   -3.605   -4.896    C.ar       1    CNT1    0.000
     63     C    4.204   -3.605   -3.226    C.ar       1    CNT1    0.000
     64     C    4.896   -3.605   -2.028    C.ar       1    CNT1    0.000
     65     C    5.299   -4.806    0.000    C.ar       1    CNT1    0.000
     66     C    4.589   -4.806    2.650    C.ar       1    CNT1    0.000
     67     C    3.747   -4.806    3.747    C.ar       1    CNT1    0.000
     68     C    1.372   -4.806    5.119    C.ar       1    CNT1    0.000
     69     C    0.000   -4.806    5.299    C.ar       1    CNT1    0.000
     70     C   -2.650   -4.806    4.589    C.ar       1    CNT1    0.000
     71     C   -3.747   -4.806    3.747    C.ar       1    CNT1    0.000
     72     C   -5.119   -4.806    1.372    C.ar       1    CNT1    0.000
     73     C   -5.299   -4.806    0.000    C.ar       1    CNT1    0.000
     74     C   -4.589   -4.806   -2.650    C.ar       1    CNT1    0.000
     75     C   -3.747   -4.806   -3.747    C.ar       1    CNT1    0.000
     76     C   -1.372   -4.806   -5.119    C.ar       1    CNT1    0.000
     77     C   -0.000   -4.806   -5.299    C.ar       1    CNT1    0.000
     78     C    2.650   -4.806   -4.589    C.ar       1    CNT1    0.000
     79     C    3.747   -4.806   -3.747    C.ar       1    CNT1    0.000
     80     C    5.119   -4.806   -1.372    C.ar       1    CNT1    0.000
     81     C    5.254   -6.008    0.692    C.ar       1    CNT1    0.000
     82     C    4.896   -6.008    2.028    C.ar       1    CNT1    0.000
     83     C    3.226   -6.008    4.204    C.ar       1    CNT1    0.000
     84     C    2.028   -6.008    4.896    C.ar       1    CNT1    0.000
     85     C   -0.692   -6.008    5.254    C.ar       1    CNT1    0.000
     86     C   -2.028   -6.008    4.896    C.ar       1    CNT1    0.000
     87     C   -4.204   -6.008    3.226    C.ar       1    CNT1    0.000
     88     C   -4.896   -6.008    2.028    C.ar       1    CNT1    0.000
     89     C   -5.254   -6.008   -0.692    C.ar       1    CNT1    0.000
     90     C   -4.896   -6.008   -2.028    C.ar       1    CNT1    0.000
     91     C   -3.226   -6.008   -4.204    C.ar       1    CNT1    0.000
     92     C   -2.028   -6.008   -4.896    C.ar       1    CNT1    0.000
     93     C    0.692   -6.008   -5.254    C.ar       1    CNT1    0.000
     94     C    2.028   -6.008   -4.896    C.ar       1    CNT1    0.000
     95     C    4.204   -6.008   -3.226    C.ar       1    CNT1    0.000
     96     C    4.896   -6.008   -2.028    C.ar       1    CNT1    0.000
     97     C    5.299   -7.209    0.000    C.ar       1    CNT1    0.000
     98     C    4.589   -7.209    2.650    C.ar       1    CNT1    0.000
     99     C    3.747   -7.209    3.747    C.ar       1    CNT1    0.000
    100     C    1.372   -7.209    5.119    C.ar       1    CNT1    0.000
    101     C    0.000   -7.209    5.299    C.ar       1    CNT1    0.000
    102     C   -2.650   -7.209    4.589    C.ar       1    CNT1    0.000
    103     C   -3.747   -7.209    3.747    C.ar       1    CNT1    0.000
    104     C   -5.119   -7.209    1.372    C.ar       1    CNT1    0.000
    105     C   -5.299   -7.209    0.000    C.ar       1    CNT1    0.000
    106     C   -4.589   -7.209   -2.650    C.ar       1    CNT1    0.000
    107     C   -3.747   -7.209   -3.747    C.ar       1    CNT1    0.000
    108     C   -1.372   -7.209   -5.119    C.ar       1    CNT1    0.000
    109     C   -0.000   -7.209   -5.299    C.ar       1    CNT1    0.000
    110     C    2.650   -7.209   -4.589    C.ar       1    CNT1    0.000
    111     C    3.747   -7.209   -3.747    C.ar       1    CNT1    0.000
    112     C    5.119   -7.209   -1.372    C.ar       1    CNT1    0.000
    113     C    5.254   -8.411    0.692    C.ar       1    CNT1    0.000
    114     C    4.896   -8.411    2.028    C.ar       1    CNT1    0.000
    115     C    3.226   -8.411    4.204    C.ar       1    CNT1    0.000
    116     C    2.028   -8.411    4.896    C.ar       1    CNT1    0.000
    117     C   -0.692   -8.411    5.254    C.ar       1    CNT1    0.000
    118     C   -2.028   -8.411    4.896    C.ar       1    CNT1    0.000
    119     C   -4.204   -8.411    3.226    C.ar       1    CNT1    0.000
    120     C   -4.896   -8.411    2.028    C.ar       1    CNT1    0.000
    121     C   -5.254   -8.411   -0.692    C.ar       1    CNT1    0.000
    122     C   -4.896   -8.411   -2.028    C.ar       1    CNT1    0.000
    123     C   -3.226   -8.411   -4.204    C.ar       1    CNT1    0.000
    124     C   -2.028   -8.411   -4.896    C.ar       1    CNT1    0.000
    125     C    0.692   -8.411   -5.254    C.ar       1    CNT1    0.000
    126     C    2.028   -8.411   -4.896    C.ar       1    CNT1    0.000
    127     C    4.204   -8.411   -3.226    C.ar       1    CNT1    0.000
    128     C    4.896   -8.411   -2.028    C.ar       1    CNT1    0.000
    129     C    5.299   -9.612    0.000    C.ar       1    CNT1    0.000
    130     C    4.589   -9.612    2.650    C.ar       1    CNT1    0.000
    131     C    3.747   -9.612    3.747    C.ar       1    CNT1    0.000
    132     C    1.372   -9.612    5.119    C.ar       1    CNT1    0.000
    133     C    0.000   -9.612    5.299    C.ar       1    CNT1    0.000
    134     C   -2.650   -9.612    4.589    C.ar       1    CNT1    0.000
    135     C   -3.747   -9.612    3.747    C.ar       1    CNT1    0.000
    136     C   -5.119   -9.612    1.372    C.ar       1    CNT1    0.000
    137     C   -5.299   -9.612    0.000    C.ar       1    CNT1    0.000
    138     C   -4.589   -9.612   -2.650    C.ar       1    CNT1    0.000
    139     C   -3.747   -9.612   -3.747    C.ar       1    CNT1    0.000
    140     C   -1.372   -9.612   -5.119    C.ar       1    CNT1    0.000
    141     C   -0.000   -9.612   -5.299    C.ar       1    CNT1    0.000
    142     C    2.650   -9.612   -4.589    C.ar       1    CNT1    0.000
    143     C    3.747   -9.612   -3.747    C.ar       1    CNT1    0.000
    144     C    5.119   -9.612   -1.372    C.ar       1    CNT1    0.000
    145     C    5.254  -10.814    0.692    C.ar       1    CNT1    0.000
    146     C    4.896  -10.814    2.028    C.ar       1    CNT1    0.000
    147     C    3.226  -10.814    4.204    C.ar       1    CNT1    0.000
    148     C    2.028  -10.814    4.896    C.ar       1    CNT1    0.000
    149     C   -0.692  -10.814    5.254    C.ar       1    CNT1    0.000
    150     C   -2.028  -10.814    4.896    C.ar       1    CNT1    0.000
    151     C   -4.204  -10.814    3.226    C.ar       1    CNT1    0.000
    152     C   -4.896  -10.814    2.028    C.ar       1    CNT1    0.000
    153     C   -5.254  -10.814   -0.692    C.ar       1    CNT1    0.000
    154     C   -4.896  -10.814   -2.028    C.ar       1    CNT1    0.000
    155     C   -3.226  -10.814   -4.204    C.ar       1    CNT1    0.000
    156     C   -2.028  -10.814   -4.896    C.ar       1    CNT1    0.000
    157     C    0.692  -10.814   -5.254    C.ar       1    CNT1    0.000
    158     C    2.028  -10.814   -4.896    C.ar       1    CNT1    0.000
    159     C    4.204  -10.814   -3.226    C.ar       1    CNT1    0.000
    160     C    4.896  -10.814   -2.028    C.ar       1    CNT1    0.000
    161     C    5.299  -12.015    0.000    C.ar       1    CNT1    0.000
    162     C    4.589  -12.015    2.650    C.ar       1    CNT1    0.000
    163     C    3.747  -12.015    3.747    C.ar       1    CNT1    0.000
    164     C    1.372  -12.015    5.119    C.ar       1    CNT1    0.000
    165     C    0.000  -12.015    5.299    C.ar       1    CNT1    0.000
    166     C   -2.650  -12.015    4.589    C.ar       1    CNT1    0.000
    167     C   -3.747  -12.015    3.747    C.ar       1    CNT1    0.000
    168     C   -5.119  -12.015    1.372    C.ar       1    CNT1    0.000
    169     C   -5.299  -12.015    0.000    C.ar       1    CNT1    0.000
    170     C   -4.589  -12.015   -2.650    C.ar       1    CNT1    0.000
    171     C   -3.747  -12.015   -3.747    C.ar       1    CNT1    0.000
    172     C   -1.372  -12.015   -5.119    C.ar       1    CNT1    0.000
    173     C   -0.000  -12.015   -5.299    C.ar       1    CNT1    0.000
    174     C    2.650  -12.015   -4.589    C.ar       1    CNT1    0.000
    175     C    3.747  -12.015   -3.747    C.ar       1    CNT1    0.000
    176     C    5.119  -12.015   -1.372    C.ar       1    CNT1    0.000
    177     C    5.254  -13.217    0.692    C.ar       1    CNT1    0.000
    178     C    4.896  -13.217    2.028    C.ar       1    CNT1    0.000
    179     C    3.226  -13.217    4.204    C.ar       1    CNT1    0.000
    180     C    2.028  -13.217    4.896    C.ar       1    CNT1    0.000
    181     C   -0.692  -13.217    5.254    C.ar       1    CNT1    0.000
    182     C   -2.028  -13.217    4.896    C.ar       1    CNT1    0.000
    183     C   -4.204  -13.217    3.226    C.ar       1    CNT1    0.000
    184     C   -4.896  -13.217    2.028    C.ar       1    CNT1    0.000
    185     C   -5.254  -13.217   -0.692    C.ar       1    CNT1    0.000
    186     C   -4.896  -13.217   -2.028    C.ar       1    CNT1    0.000
    187     C   -3.226  -13.217   -4.204    C.ar       1    CNT1    0.000
    188     C   -2.028  -13.217   -4.896    C.ar       1    CNT1    0.000
    189     C    0.692  -13.217   -5.254    C.ar       1    CNT1    0.000
    190     C    2.028  -13.217   -4.896    C.ar       1    CNT1    0.000
    191     C    4.204  -13.217   -3.226    C.ar       1    CNT1    0.000
    192     C    4.896  -13.217   -2.028    C.ar       1    CNT1    0.000
    193     C    5.299  -14.418    0.000    C.ar       1    CNT1    0.000
    194     C    4.589  -14.418    2.650    C.ar       1    CNT1    0.000
    195     C    3.747  -14.418    3.747    C.ar       1    CNT1    0.000
    196     C    1.372  -14.418    5.119    C.ar       1    CNT1    0.000
    197     C    0.000  -14.418    5.299    C.ar       1    CNT1    0.000
    198     C   -2.650  -14.418    4.589    C.ar       1    CNT1    0.000
    199     C   -3.747  -14.418    3.747    C.ar       1    CNT1    0.000
    200     C   -5.119  -14.418    1.372    C.ar       1    CNT1    0.000
    201     C   -5.299  -14.418    0.000    C.ar       1    CNT1    0.000
    202     C   -4.589  -14.418   -2.650    C.ar       1    CNT1    0.000
    203     C   -3.747  -14.418   -3.747    C.ar       1    CNT1    0.000
    204     C   -1.372  -14.418   -5.119    C.ar       1    CNT1    0.000
    205     C   -0.000  -14.418   -5.299    C.ar       1    CNT1    0.000
    206     C    2.650  -14.418   -4.589    C.ar       1    CNT1    0.000
    207     C    3.747  -14.418   -3.747    C.ar       1    CNT1    0.000
    208     C    5.119  -14.418   -1.372    C.ar       1    CNT1    0.000
    209     C    5.254  -15.620    0.692    C.ar       1    CNT1    0.000
    210     C    4.896  -15.620    2.028    C.ar       1    CNT1    0.000
    211     C    3.226  -15.620    4.204    C.ar       1    CNT1    0.000
    212     C    2.028  -15.620    4.896    C.ar       1    CNT1    0.000
    213     C   -0.692  -15.620    5.254    C.ar       1    CNT1    0.000
    214     C   -2.028  -15.620    4.896    C.ar       1    CNT1    0.000
    215     C   -4.204  -15.620    3.226    C.ar       1    CNT1    0.000
    216     C   -4.896  -15.620    2.028    C.ar       1    CNT1    0.000
    217     C   -5.254  -15.620   -0.692    C.ar       1    CNT1    0.000
    218     C   -4.896  -15.620   -2.028    C.ar       1    CNT1    0.000
    219     C   -3.226  -15.620   -4.204    C.ar       1    CNT1    0.000
    220     C   -2.028  -15.620   -4.896    C.ar       1    CNT1    0.000
    221     C    0.692  -15.620   -5.254    C.ar       1    CNT1    0.000
    222     C    2.028  -15.620   -4.896    C.ar       1    CNT1    0.000
    223     C    4.204  -15.620   -3.226    C.ar       1    CNT1    0.000
    224     C    4.896  -15.620   -2.028    C.ar       1    CNT1    0.000
    225     C    5.299  -16.821    0.000    C.ar       1    CNT1    0.000
    226     C    4.589  -16.821    2.650    C.ar       1    CNT1    0.000
    227     C    3.747  -16.821    3.747    C.ar       1    CNT1    0.000
    228     C    1.372  -16.821    5.119    C.ar       1    CNT1    0.000
    229     C    0.000  -16.821    5.299    C.ar       1    CNT1    0.000
    230     C   -2.650  -16.821    4.589    C.ar       1    CNT1    0.000
    231     C   -3.747  -16.821    3.747    C.ar       1    CNT1    0.000
    232     C   -5.119  -16.821    1.372    C.ar       1    CNT1    0.000
    233     C   -5.299  -16.821    0.000    C.ar       1    CNT1    0.000
    234     C   -4.589  -16.821   -2.650    C.ar       1    CNT1    0.000
    235     C   -3.747  -16.821   -3.747    C.ar       1    CNT1    0.000
    236     C   -1.372  -16.821   -5.119    C.ar       1    CNT1    0.000
    237     C   -0.000  -16.821   -5.299    C.ar       1    CNT1    0.000
    238     C    2.650  -16.821   -4.589    C.ar       1    CNT1    0.000
    239     C    3.747  -16.821   -3.747    C.ar       1    CNT1    0.000
    240     C    5.119  -16.821   -1.372    C.ar       1    CNT1    0.000
    241     C    5.254  -18.023    0.692    C.ar       1    CNT1    0.000
    242     C    4.896  -18.023    2.028    C.ar       1    CNT1    0.000
    243     C    3.226  -18.023    4.204    C.ar       1    CNT1    0.000
    244     C    2.028  -18.023    4.896    C.ar       1    CNT1    0.000
    245     C   -0.692  -18.023    5.254    C.ar       1    CNT1    0.000
    246     C   -2.028  -18.023    4.896    C.ar       1    CNT1    0.000
    247     C   -4.204  -18.023    3.226    C.ar       1    CNT1    0.000
    248     C   -4.896  -18.023    2.028    C.ar       1    CNT1    0.000
    249     C   -5.254  -18.023   -0.692    C.ar       1    CNT1    0.000
    250     C   -4.896  -18.023   -2.028    C.ar       1    CNT1    0.000
    251     C   -3.226  -18.023   -4.204    C.ar       1    CNT1    0.000
    252     C   -2.028  -18.023   -4.896    C.ar       1    CNT1    0.000
    253     C    0.692  -18.023   -5.254    C.ar       1    CNT1    0.000
    254     C    2.028  -18.023   -4.896    C.ar       1    CNT1    0.000
    255     C    4.204  -18.023   -3.226    C.ar       1    CNT1    0.000
    256     C    4.896  -18.023   -2.028    C.ar       1    CNT1    0.000
    257     C    5.299  -19.224    0.000    C.ar       1    CNT1    0.000
    258     C    4.589  -19.224    2.650    C.ar       1    CNT1    0.000
    259     C    3.747  -19.224    3.747    C.ar       1    CNT1    0.000
    260     C    1.372  -19.224    5.119    C.ar       1    CNT1    0.000
    261     C    0.000  -19.224    5.299    C.ar       1    CNT1    0.000
    262     C   -2.650  -19.224    4.589    C.ar       1    CNT1    0.000
    263     C   -3.747  -19.224    3.747    C.ar       1    CNT1    0.000
    264     C   -5.119  -19.224    1.372    C.ar       1    CNT1    0.000
    265     C   -5.299  -19.224    0.000    C.ar       1    CNT1    0.000
    266     C   -4.589  -19.224   -2.650    C.ar       1    CNT1    0.000
    267     C   -3.747  -19.224   -3.747    C.ar       1    CNT1    0.000
    268     C   -1.372  -19.224   -5.119    C.ar       1    CNT1    0.000
    269     C   -0.000  -19.224   -5.299    C.ar       1    CNT1    0.000
    270     C    2.650  -19.224   -4.589    C.ar       1    CNT1    0.000
    271     C    3.747  -19.224   -3.747    C.ar       1    CNT1    0.000
    272     C    5.119  -19.224   -1.372    C.ar       1    CNT1    0.000
    273     C    5.254  -20.426    0.692    C.ar       1    CNT1    0.000
    274     C    4.896  -20.426    2.028    C.ar       1    CNT1    0.000
    275     C    3.226  -20.426    4.204    C.ar       1    CNT1    0.000
    276     C    2.028  -20.426    4.896    C.ar       1    CNT1    0.000
    277     C   -0.692  -20.426    5.254    C.ar       1    CNT1    0.000
    278     C   -2.028  -20.426    4.896    C.ar       1    CNT1    0.000
    279     C   -4.204  -20.426    3.226    C.ar       1    CNT1    0.000
    280     C   -4.896  -20.426    2.028    C.ar       1    CNT1    0.000
    281     C   -5.254  -20.426   -0.692    C.ar       1    CNT1    0.000
    282     C   -4.896  -20.426   -2.028    C.ar       1    CNT1    0.000
    283     C   -3.226  -20.426   -4.204    C.ar       1    CNT1    0.000
    284     C   -2.028  -20.426   -4.896    C.ar       1    CNT1    0.000
    285     C    0.692  -20.426   -5.254    C.ar       1    CNT1    0.000
    286     C    2.028  -20.426   -4.896    C.ar       1    CNT1    0.000
    287     C    4.204  -20.426   -3.226    C.ar       1    CNT1    0.000
    288     C    4.896  -20.426   -2.028    C.ar       1    CNT1    0.000
    289     C    5.299  -21.627    0.000    C.ar       1    CNT1    0.000
    290     C    4.589  -21.627    2.650    C.ar       1    CNT1    0.000
    291     C    3.747  -21.627    3.747    C.ar       1    CNT1    0.000
    292     C    1.372  -21.627    5.119    C.ar       1    CNT1    0.000
    293     C    0.000  -21.627    5.299    C.ar       1    CNT1    0.000
    294     C   -2.650  -21.627    4.589    C.ar       1    CNT1    0.000
    295     C   -3.747  -21.627    3.747    C.ar       1    CNT1    0.000
    296     C   -5.119  -21.627    1.372    C.ar       1    CNT1    0.000
    297     C   -5.299  -21.627    0.000    C.ar       1    CNT1    0.000
    298     C   -4.589  -21.627   -2.650    C.ar       1    CNT1    0.000
    299     C   -3.747  -21.627   -3.747    C.ar       1    CNT1    0.000
    300     C   -1.372  -21.627   -5.119    C.ar       1    CNT1    0.000
    301     C   -0.000  -21.627   -5.299    C.ar       1    CNT1    0.000
    302     C    2.650  -21.627   -4.589    C.ar       1    CNT1    0.000
    303     C    3.747  -21.627   -3.747    C.ar       1    CNT1    0.000
    304     C    5.119  -21.627   -1.372    C.ar       1    CNT1    0.000
    305     C    5.254  -22.829    0.692    C.ar       1    CNT1    0.000
    306     C    4.896  -22.829    2.028    C.ar       1    CNT1    0.000
    307     C    3.226  -22.829    4.204    C.ar       1    CNT1    0.000
    308     C    2.028  -22.829    4.896    C.ar       1    CNT1    0.000
    309     C   -0.692  -22.829    5.254    C.ar       1    CNT1    0.000
    310     C   -2.028  -22.829    4.896    C.ar       1    CNT1    0.000
    311     C   -4.204  -22.829    3.226    C.ar       1    CNT1    0.000
    312     C   -4.896  -22.829    2.028    C.ar       1    CNT1    0.000
    313     C   -5.254  -22.829   -0.692    C.ar       1    CNT1    0.000
    314     C   -4.896  -22.829   -2.028    C.ar       1    CNT1    0.000
    315     C   -3.226  -22.829   -4.204    C.ar       1    CNT1    0.000
    316     C   -2.028  -22.829   -4.896    C.ar       1    CNT1    0.000
    317     C    0.692  -22.829   -5.254    C.ar       1    CNT1    0.000
    318     C    2.028  -22.829   -4.896    C.ar       1    CNT1    0.000
    319     C    4.204  -22.829   -3.226    C.ar       1    CNT1    0.000
    320     C    4.896  -22.829   -2.028    C.ar       1    CNT1    0.000
    321     C    5.299  -24.030    0.000    C.ar       1    CNT1    0.000
    322     C    4.589  -24.030    2.650    C.ar       1    CNT1    0.000
    323     C    3.747  -24.030    3.747    C.ar       1    CNT1    0.000
    324     C    1.372  -24.030    5.119    C.ar       1    CNT1    0.000
    325     C    0.000  -24.030    5.299    C.ar       1    CNT1    0.000
    326     C   -2.650  -24.030    4.589    C.ar       1    CNT1    0.000
    327     C   -3.747  -24.030    3.747    C.ar       1    CNT1    0.000
    328     C   -5.119  -24.030    1.372    C.ar       1    CNT1    0.000
    329     C   -5.299  -24.030    0.000    C.ar       1    CNT1    0.000
    330     C   -4.589  -24.030   -2.650    C.ar       1    CNT1    0.000
    331     C   -3.747  -24.030   -3.747    C.ar       1    CNT1    0.000
    332     C   -1.372  -24.030   -5.119    C.ar       1    CNT1    0.000
    333     C   -0.000  -24.030   -5.299    C.ar       1    CNT1    0.000
    334     C    2.650  -24.030   -4.589    C.ar       1    CNT1    0.000
    335     C    3.747  -24.030   -3.747    C.ar       1    CNT1    0.000
    336     C    5.119  -24.030   -1.372    C.ar       1    CNT1    0.000
    337     C    5.254  -25.232    0.692    C.ar       1    CNT1    0.000
    338     C    4.896  -25.232    2.028    C.ar       1    CNT1    0.000
    339     C    3.226  -25.232    4.204    C.ar       1    CNT1    0.000
    340     C    2.028  -25.232    4.896    C.ar       1    CNT1    0.000
    341     C   -0.692  -25.232    5.254    C.ar       1    CNT1    0.000
    342     C   -2.028  -25.232    4.896    C.ar       1    CNT1    0.000
    343     C   -4.204  -25.232    3.226    C.ar       1    CNT1    0.000
    344     C   -4.896  -25.232    2.028    C.ar       1    CNT1    0.000
    345     C   -5.254  -25.232   -0.692    C.ar       1    CNT1    0.000
    346     C   -4.896  -25.232   -2.028    C.ar       1    CNT1    0.000
    347     C   -3.226  -25.232   -4.204    C.ar       1    CNT1    0.000
    348     C   -2.028  -25.232   -4.896    C.ar       1    CNT1    0.000
    349     C    0.692  -25.232   -5.254    C.ar       1    CNT1    0.000
    350     C    2.028  -25.232   -4.896    C.ar       1    CNT1    0.000
    351     C    4.204  -25.232   -3.226    C.ar       1    CNT1    0.000
    352     C    4.896  -25.232   -2.028    C.ar       1    CNT1    0.000
    353     C    5.299  -26.434    0.000    C.ar       1    CNT1    0.000
    354     C    4.589  -26.434    2.650    C.ar       1    CNT1    0.000
    355     C    3.747  -26.434    3.747    C.ar       1    CNT1    0.000
    356     C    1.372  -26.434    5.119    C.ar       1    CNT1    0.000
    357     C    0.000  -26.434    5.299    C.ar       1    CNT1    0.000
    358     C   -2.650  -26.434    4.589    C.ar       1    CNT1    0.000
    359     C   -3.747  -26.434    3.747    C.ar       1    CNT1    0.000
    360     C   -5.119  -26.434    1.372    C.ar       1    CNT1    0.000
    361     C   -5.299  -26.434    0.000    C.ar       1    CNT1    0.000
    362     C   -4.589  -26.434   -2.650    C.ar       1    CNT1    0.000
    363     C   -3.747  -26.434   -3.747    C.ar       1    CNT1    0.000
    364     C   -1.372  -26.434   -5.119    C.ar       1    CNT1    0.000
    365     C   -0.000  -26.434   -5.299    C.ar       1    CNT1    0.000
    366     C    2.650  -26.434   -4.589    C.ar       1    CNT1    0.000
    367     C    3.747  -26.434   -3.747    C.ar       1    CNT1    0.000
    368     C    5.119  -26.434   -1.372    C.ar       1    CNT1    0.000
    369     C    5.254  -27.635    0.692    C.ar       1    CNT1    0.000
    370     C    4.896  -27.635    2.028    C.ar       1    CNT1    0.000
    371     C    3.226  -27.635    4.204    C.ar       1    CNT1    0.000
    372     C    2.028  -27.635    4.896    C.ar       1    CNT1    0.000
    373     C   -0.692  -27.635    5.254    C.ar       1    CNT1    0.000
    374     C   -2.028  -27.635    4.896    C.ar       1    CNT1    0.000
    375     C   -4.204  -27.635    3.226    C.ar       1    CNT1    0.000
    376     C   -4.896  -27.635    2.028    C.ar       1    CNT1    0.000
    377     C   -5.254  -27.635   -0.692    C.ar       1    CNT1    0.000
    378     C   -4.896  -27.635   -2.028    C.ar       1    CNT1    0.000
    379     C   -3.226  -27.635   -4.204    C.ar       1    CNT1    0.000
    380     C   -2.028  -27.635   -4.896    C.ar       1    CNT1    0.000
    381     C    0.692  -27.635   -5.254    C.ar       1    CNT1    0.000
    382     C    2.028  -27.635   -4.896    C.ar       1    CNT1    0.000
    383     C    4.204  -27.635   -3.226    C.ar       1    CNT1    0.000
    384     C    4.896  -27.635   -2.028    C.ar       1    CNT1    0.000
    385     C    5.299  -28.837    0.000    C.ar       1    CNT1    0.000
    386     C    4.589  -28.837    2.650    C.ar       1    CNT1    0.000
    387     C    3.747  -28.837    3.747    C.ar       1    CNT1    0.000
    388     C    1.372  -28.837    5.119    C.ar       1    CNT1    0.000
    389     C    0.000  -28.837    5.299    C.ar       1    CNT1    0.000
    390     C   -2.650  -28.837    4.589    C.ar       1    CNT1    0.000
    391     C   -3.747  -28.837    3.747    C.ar       1    CNT1    0.000
    392     C   -5.119  -28.837    1.372    C.ar       1    CNT1    0.000
    393     C   -5.299  -28.837    0.000    C.ar       1    CNT1    0.000
    394     C   -4.589  -28.837   -2.650    C.ar       1    CNT1    0.000
    395     C   -3.747  -28.837   -3.747    C.ar       1    CNT1    0.000
    396     C   -1.372  -28.837   -5.119    C.ar       1    CNT1    0.000
    397     C   -0.000  -28.837   -5.299    C.ar       1    CNT1    0.000
    398     C    2.650  -28.837   -4.589    C.ar       1    CNT1    0.000
    399     C    3.747  -28.837   -3.747    C.ar       1    CNT1    0.000
    400     C    5.119  -28.837   -1.372    C.ar       1    CNT1    0.000
    401     C    5.254  -30.038    0.692    C.ar       1    CNT1    0.000
    402     C    4.896  -30.038    2.028    C.ar       1    CNT1    0.000
    403     C    3.226  -30.038    4.204    C.ar       1    CNT1    0.000
    404     C    2.028  -30.038    4.896    C.ar       1    CNT1    0.000
    405     C   -0.692  -30.038    5.254    C.ar       1    CNT1    0.000
    406     C   -2.028  -30.038    4.896    C.ar       1    CNT1    0.000
    407     C   -4.204  -30.038    3.226    C.ar       1    CNT1    0.000
    408     C   -4.896  -30.038    2.028    C.ar       1    CNT1    0.000
    409     C   -5.254  -30.038   -0.692    C.ar       1    CNT1    0.000
    410     C   -4.896  -30.038   -2.028    C.ar       1    CNT1    0.000
    411     C   -3.226  -30.038   -4.204    C.ar       1    CNT1    0.000
    412     C   -2.028  -30.038   -4.896    C.ar       1    CNT1    0.000
    413     C    0.692  -30.038   -5.254    C.ar       1    CNT1    0.000
    414     C    2.028  -30.038   -4.896    C.ar       1    CNT1    0.000
    415     C    4.204  -30.038   -3.226    C.ar       1    CNT1    0.000
    416     C    4.896  -30.038   -2.028    C.ar       1    CNT1    0.000
    417     C    5.299  -31.240    0.000    C.ar       1    CNT1    0.000
    418     C    4.589  -31.240    2.650    C.ar       1    CNT1    0.000
    419     C    3.747  -31.240    3.747    C.ar       1    CNT1    0.000
    420     C    1.372  -31.240    5.119    C.ar       1    CNT1    0.000
    421     C    0.000  -31.240    5.299    C.ar       1    CNT1    0.000
    422     C   -2.650  -31.240    4.589    C.ar       1    CNT1    0.000
    423     C   -3.747  -31.240    3.747    C.ar       1    CNT1    0.000
    424     C   -5.119  -31.240    1.372    C.ar       1    CNT1    0.000
    425     C   -5.299  -31.240    0.000    C.ar       1    CNT1    0.000
    426     C   -4.589  -31.240   -2.650    C.ar       1    CNT1    0.000
    427     C   -3.747  -31.240   -3.747    C.ar       1    CNT1    0.000
    428     C   -1.372  -31.240   -5.119    C.ar       1    CNT1    0.000
    429     C   -0.000  -31.240   -5.299    C.ar       1    CNT1    0.000
    430     C    2.650  -31.240   -4.589    C.ar       1    CNT1    0.000
    431     C    3.747  -31.240   -3.747    C.ar       1    CNT1    0.000
    432     C    5.119  -31.240   -1.372    C.ar       1    CNT1    0.000
    433     C    5.254  -32.441    0.692    C.ar       1    CNT1    0.000
    434     C    4.896  -32.441    2.028    C.ar       1    CNT1    0.000
    435     C    3.226  -32.441    4.204    C.ar       1    CNT1    0.000
    436     C    2.028  -32.441    4.896    C.ar       1    CNT1    0.000
    437     C   -0.692  -32.441    5.254    C.ar       1    CNT1    0.000
    438     C   -2.028  -32.441    4.896    C.ar       1    CNT1    0.000
    439     C   -4.204  -32.441    3.226    C.ar       1    CNT1    0.000
    440     C   -4.896  -32.441    2.028    C.ar       1    CNT1    0.000
    441     C   -5.254  -32.441   -0.692    C.ar       1    CNT1    0.000
    442     C   -4.896  -32.441   -2.028    C.ar       1    CNT1    0.000
    443     C   -3.226  -32.441   -4.204    C.ar       1    CNT1    0.000
    444     C   -2.028  -32.441   -4.896    C.ar       1    CNT1    0.000
    445     C    0.692  -32.441   -5.254    C.ar       1    CNT1    0.000
    446     C    2.028  -32.441   -4.896    C.ar       1    CNT1    0.000
    447     C    4.204  -32.441   -3.226    C.ar       1    CNT1    0.000
    448     C    4.896  -32.441   -2.028    C.ar       1    CNT1    0.000
    449     C    5.299  -33.643    0.000    C.ar       1    CNT1    0.000
    450     C    4.589  -33.643    2.650    C.ar       1    CNT1    0.000
    451     C    3.747  -33.643    3.747    C.ar       1    CNT1    0.000
    452     C    1.372  -33.643    5.119    C.ar       1    CNT1    0.000
    453     C    0.000  -33.643    5.299    C.ar       1    CNT1    0.000
    454     C   -2.650  -33.643    4.589    C.ar       1    CNT1    0.000
    455     C   -3.747  -33.643    3.747    C.ar       1    CNT1    0.000
    456     C   -5.119  -33.643    1.372    C.ar       1    CNT1    0.000
    457     C   -5.299  -33.643    0.000    C.ar       1    CNT1    0.000
    458     C   -4.589  -33.643   -2.650    C.ar       1    CNT1    0.000
    459     C   -3.747  -33.643   -3.747    C.ar       1    CNT1    0.000
    460     C   -1.372  -33.643   -5.119    C.ar       1    CNT1    0.000
    461     C   -0.000  -33.643   -5.299    C.ar       1    CNT1    0.000
    462     C    2.650  -33.643   -4.589    C.ar       1    CNT1    0.000
    463     C    3.747  -33.643   -3.747    C.ar       1    CNT1    0.000
    464     C    5.119  -33.643   -1.372    C.ar       1    CNT1    0.000
    465     C    5.254  -34.844    0.692    C.ar       1    CNT1    0.000
    466     C    4.896  -34.844    2.028    C.ar       1    CNT1    0.000
    467     C    3.226  -34.844    4.204    C.ar       1    CNT1    0.000
    468     C    2.028  -34.844    4.896    C.ar       1    CNT1    0.000
    469     C   -0.692  -34.844    5.254    C.ar       1    CNT1    0.000
    470     C   -2.028  -34.844    4.896    C.ar       1    CNT1    0.000
    471     C   -4.204  -34.844    3.226    C.ar       1    CNT1    0.000
    472     C   -4.896  -34.844    2.028    C.ar       1    CNT1    0.000
    473     C   -5.254  -34.844   -0.692    C.ar       1    CNT1    0.000
    474     C   -4.896  -34.844   -2.028    C.ar       1    CNT1    0.000
    475     C   -3.226  -34.844   -4.204    C.ar       1    CNT1    0.000
    476     C   -2.028  -34.844   -4.896    C.ar       1    CNT1    0.000
    477     C    0.692  -34.844   -5.254    C.ar       1    CNT1    0.000
    478     C    2.028  -34.844   -4.896    C.ar       1    CNT1    0.000
    479     C    4.204  -34.844   -3.226    C.ar       1    CNT1    0.000
    480     C    4.896  -34.844   -2.028    C.ar       1    CNT1    0.000
    481     C    5.299  -36.046    0.000    C.ar       1    CNT1    0.000
    482     C    4.589  -36.046    2.650    C.ar       1    CNT1    0.000
    483     C    3.747  -36.046    3.747    C.ar       1    CNT1    0.000
    484     C    1.372  -36.046    5.119    C.ar       1    CNT1    0.000
    485     C    0.000  -36.046    5.299    C.ar       1    CNT1    0.000
    486     C   -2.650  -36.046    4.589    C.ar       1    CNT1    0.000
    487     C   -3.747  -36.046    3.747    C.ar       1    CNT1    0.000
    488     C   -5.119  -36.046    1.372    C.ar       1    CNT1    0.000
    489     C   -5.299  -36.046    0.000    C.ar       1    CNT1    0.000
    490     C   -4.589  -36.046   -2.650    C.ar       1    CNT1    0.000
    491     C   -3.747  -36.046   -3.747    C.ar       1    CNT1    0.000
    492     C   -1.372  -36.046   -5.119    C.ar       1    CNT1    0.000
    493     C   -0.000  -36.046   -5.299    C.ar       1    CNT1    0.000
    494     C    2.650  -36.046   -4.589    C.ar       1    CNT1    0.000
    495     C    3.747  -36.046   -3.747    C.ar       1    CNT1    0.000
    496     C    5.119  -36.046   -1.372    C.ar       1    CNT1    0.000
    497     C    5.254  -37.247    0.692    C.ar       1    CNT1    0.000
    498     C    4.896  -37.247    2.028    C.ar       1    CNT1    0.000
    499     C    3.226  -37.247    4.204    C.ar       1    CNT1    0.000
    500     C    2.028  -37.247    4.896    C.ar       1    CNT1    0.000
    501     C   -0.692  -37.247    5.254    C.ar       1    CNT1    0.000
    502     C   -2.028  -37.247    4.896    C.ar       1    CNT1    0.000
    503     C   -4.204  -37.247    3.226    C.ar       1    CNT1    0.000
    504     C   -4.896  -37.247    2.028    C.ar       1    CNT1    0.000
    505     C   -5.254  -37.247   -0.692    C.ar       1    CNT1    0.000
    506     C   -4.896  -37.247   -2.028    C.ar       1    CNT1    0.000
    507     C   -3.226  -37.247   -4.204    C.ar       1    CNT1    0.000
    508     C   -2.028  -37.247   -4.896    C.ar       1    CNT1    0.000
    509     C    0.692  -37.247   -5.254    C.ar       1    CNT1    0.000
    510     C    2.028  -37.247   -4.896    C.ar       1    CNT1    0.000
    511     C    4.204  -37.247   -3.226    C.ar       1    CNT1    0.000
    512     C    4.896  -37.247   -2.028    C.ar       1    CNT1    0.000
    513     C    5.299  -38.449    0.000    C.ar       1    CNT1    0.000
    514     C    4.589  -38.449    2.650    C.ar       1    CNT1    0.000
    515     C    3.747  -38.449    3.747    C.ar       1    CNT1    0.000
    516     C    1.372  -38.449    5.119    C.ar       1    CNT1    0.000
    517     C    0.000  -38.449    5.299    C.ar       1    CNT1    0.000
    518     C   -2.650  -38.449    4.589    C.ar       1    CNT1    0.000
    519     C   -3.747  -38.449    3.747    C.ar       1    CNT1    0.000
    520     C   -5.119  -38.449    1.372    C.ar       1    CNT1    0.000
    521     C   -5.299  -38.449    0.000    C.ar       1    CNT1    0.000
    522     C   -4.589  -38.449   -2.650    C.ar       1    CNT1    0.000
    523     C   -3.747  -38.449   -3.747    C.ar       1    CNT1    0.000
    524     C   -1.372  -38.449   -5.119    C.ar       1    CNT1    0.000
    525     C   -0.000  -38.449   -5.299    C.ar       1    CNT1    0.000
    526     C    2.650  -38.449   -4.589    C.ar       1    CNT1    0.000
    527     C    3.747  -38.449   -3.747    C.ar       1    CNT1    0.000
    528     C    5.119  -38.449   -1.372    C.ar       1    CNT1    0.000
    529     C    5.254  -39.650    0.692    C.ar       1    CNT1    0.000
    530     C    4.896  -39.650    2.028    C.ar       1    CNT1    0.000
    531     C    3.226  -39.650    4.204    C.ar       1    CNT1    0.000
    532     C    2.028  -39.650    4.896    C.ar       1    CNT1    0.000
    533     C   -0.692  -39.650    5.254    C.ar       1    CNT1    0.000
    534     C   -2.028  -39.650    4.896    C.ar       1    CNT1    0.000
    535     C   -4.204  -39.650    3.226    C.ar       1    CNT1    0.000
    536     C   -4.896  -39.650    2.028    C.ar       1    CNT1    0.000
    537     C   -5.254  -39.650   -0.692    C.ar       1    CNT1    0.000
    538     C   -4.896  -39.650   -2.028    C.ar       1    CNT1    0.000
    539     C   -3.226  -39.650   -4.204    C.ar       1    CNT1    0.000
    540     C   -2.028  -39.650   -4.896    C.ar       1    CNT1    0.000
    541     C    0.692  -39.650   -5.254    C.ar       1    CNT1    0.000
    542     C    2.028  -39.650   -4.896    C.ar       1    CNT1    0.000
    543     C    4.204  -39.650   -3.226    C.ar       1    CNT1    0.000
    544     C    4.896  -39.650   -2.028    C.ar       1    CNT1    0.000
    545     C    5.299  -40.852    0.000    C.ar       1    CNT1    0.000
    546     C    4.589  -40.852    2.650    C.ar       1    CNT1    0.000
    547     C    3.747  -40.852    3.747    C.ar       1    CNT1    0.000
    548     C    1.372  -40.852    5.119    C.ar       1    CNT1    0.000
    549     C    0.000  -40.852    5.299    C.ar       1    CNT1    0.000
    550     C   -2.650  -40.852    4.589    C.ar       1    CNT1    0.000
    551     C   -3.747  -40.852    3.747    C.ar       1    CNT1    0.000
    552     C   -5.119  -40.852    1.372    C.ar       1    CNT1    0.000
    553     C   -5.299  -40.852    0.000    C.ar       1    CNT1    0.000
    554     C   -4.589  -40.852   -2.650    C.ar       1    CNT1    0.000
    555     C   -3.747  -40.852   -3.747    C.ar       1    CNT1    0.000
    556     C   -1.372  -40.852   -5.119    C.ar       1    CNT1    0.000
    557     C   -0.000  -40.852   -5.299    C.ar       1    CNT1    0.000
    558     C    2.650  -40.852   -4.589    C.ar       1    CNT1    0.000
    559     C    3.747  -40.852   -3.747    C.ar       1    CNT1    0.000
    560     C    5.119  -40.852   -1.372    C.ar       1    CNT1    0.000
    561     C    5.254  -42.053    0.692    C.ar       1    CNT1    0.000
    562     C    4.896  -42.053    2.028    C.ar       1    CNT1    0.000
    563     C    3.226  -42.053    4.204    C.ar       1    CNT1    0.000
    564     C    2.028  -42.053    4.896    C.ar       1    CNT1    0.000
    565     C   -0.692  -42.053    5.254    C.ar       1    CNT1    0.000
    566     C   -2.028  -42.053    4.896    C.ar       1    CNT1    0.000
    567     C   -4.204  -42.053    3.226    C.ar       1    CNT1    0.000
    568     C   -4.896  -42.053    2.028    C.ar       1    CNT1    0.000
    569     C   -5.254  -42.053   -0.692    C.ar       1    CNT1    0.000
    570     C   -4.896  -42.053   -2.028    C.ar       1    CNT1    0.000
    571     C   -3.226  -42.053   -4.204    C.ar       1    CNT1    0.000
    572     C   -2.028  -42.053   -4.896    C.ar       1    CNT1    0.000
    573     C    0.692  -42.053   -5.254    C.ar       1    CNT1    0.000
    574     C    2.028  -42.053   -4.896    C.ar       1    CNT1    0.000
    575     C    4.204  -42.053   -3.226    C.ar       1    CNT1    0.000
    576     C    4.896  -42.053   -2.028    C.ar       1    CNT1    0.000
    577     C    5.299  -43.255    0.000    C.ar       1    CNT1    0.000
    578     C    4.589  -43.255    2.650    C.ar       1    CNT1    0.000
    579     C    3.747  -43.255    3.747    C.ar       1    CNT1    0.000
    580     C    1.372  -43.255    5.119    C.ar       1    CNT1    0.000
    581     C    0.000  -43.255    5.299    C.ar       1    CNT1    0.000
    582     C   -2.650  -43.255    4.589    C.ar       1    CNT1    0.000
    583     C   -3.747  -43.255    3.747    C.ar       1    CNT1    0.000
    584     C   -5.119  -43.255    1.372    C.ar       1    CNT1    0.000
    585     C   -5.299  -43.255    0.000    C.ar       1    CNT1    0.000
    586     C   -4.589  -43.255   -2.650    C.ar       1    CNT1    0.000
    587     C   -3.747  -43.255   -3.747    C.ar       1    CNT1    0.000
    588     C   -1.372  -43.255   -5.119    C.ar       1    CNT1    0.000
    589     C   -0.000  -43.255   -5.299    C.ar       1    CNT1    0.000
    590     C    2.650  -43.255   -4.589    C.ar       1    CNT1    0.000
    591     C    3.747  -43.255   -3.747    C.ar       1    CNT1    0.000
    592     C    5.119  -43.255   -1.372    C.ar       1    CNT1    0.000
    593     C    5.254  -44.456    0.692    C.ar       1    CNT1    0.000
    594     C    4.896  -44.456    2.028    C.ar       1    CNT1    0.000
    595     C    3.226  -44.456    4.204    C.ar       1    CNT1    0.000
    596     C    2.028  -44.456    4.896    C.ar       1    CNT1    0.000
    597     C   -0.692  -44.456    5.254    C.ar       1    CNT1    0.000
    598     C   -2.028  -44.456    4.896    C.ar       1    CNT1    0.000
    599     C   -4.204  -44.456    3.226    C.ar       1    CNT1    0.000
    600     C   -4.896  -44.456    2.028    C.ar       1    CNT1    0.000
    601     C   -5.254  -44.456   -0.692    C.ar       1    CNT1    0.000
    602     C   -4.896  -44.456   -2.028    C.ar       1    CNT1    0.000
    603     C   -3.226  -44.456   -4.204    C.ar       1    CNT1    0.000
    604     C   -2.028  -44.456   -4.896    C.ar       1    CNT1    0.000
    605     C    0.692  -44.456   -5.254    C.ar       1    CNT1    0.000
    606     C    2.028  -44.456   -4.896    C.ar       1    CNT1    0.000
    607     C    4.204  -44.456   -3.226    C.ar       1    CNT1    0.000
    608     C    4.896  -44.456   -2.028    C.ar       1    CNT1    0.000
    609     C    5.299  -45.658    0.000    C.ar       1    CNT1    0.010
    610     C    4.589  -45.658    2.650    C.ar       1    CNT1    0.010
    611     C    3.747  -45.658    3.747    C.ar       1    CNT1    0.010
    612     C    1.372  -45.658    5.119    C.ar       1    CNT1    0.010
    613     C    0.000  -45.658    5.299    C.ar       1    CNT1    0.010
    614     C   -2.650  -45.658    4.589    C.ar       1    CNT1    0.010
    615     C   -3.747  -45.658    3.747    C.ar       1    CNT1    0.010
    616     C   -5.119  -45.658    1.372    C.ar       1    CNT1    0.010
    617     C   -5.299  -45.658    0.000    C.ar       1    CNT1    0.010
    618     C   -4.589  -45.658   -2.650    C.ar       1    CNT1    0.010
    619     C   -3.747  -45.658   -3.747    C.ar       1    CNT1    0.010
    620     C   -1.372  -45.658   -5.119    C.ar       1    CNT1    0.010
    621     C   -0.000  -45.658   -5.299    C.ar       1    CNT1    0.010
    622     C    2.650  -45.658   -4.589    C.ar       1    CNT1    0.010
    623     C    3.747  -45.658   -3.747    C.ar       1    CNT1    0.010
    624     C    5.119  -45.658   -1.372    C.ar       1    CNT1    0.010
    625     C    5.254  -46.859    0.692    C.ar       1    CNT1    0.240
    626     C    4.896  -46.859    2.028    C.ar       1    CNT1   -0.280
    627     C    3.226  -46.859    4.204    C.ar       1    CNT1    0.240
    628     C    2.028  -46.859    4.896    C.ar       1    CNT1   -0.280
    629     C   -0.692  -46.859    5.254    C.ar       1    CNT1    0.240
    630     C   -2.028  -46.859    4.896    C.ar       1    CNT1   -0.280
    631     C   -4.204  -46.859    3.226    C.ar       1    CNT1    0.240
    632     C   -4.896  -46.859    2.028    C.ar       1    CNT1   -0.280
    633     C   -5.254  -46.859   -0.692    C.ar       1    CNT1    0.240
    634     C   -4.896  -46.859   -2.028    C.ar       1    CNT1   -0.280
    635     C   -3.226  -46.859   -4.204    C.ar       1    CNT1    0.240
    636     C   -2.028  -46.859   -4.896    C.ar       1    CNT1   -0.280
    637     C    0.692  -46.859   -5.254    C.ar       1    CNT1    0.240
    638     C    2.028  -46.859   -4.896    C.ar       1    CNT1   -0.280
    639     C    4.204  -46.859   -3.226    C.ar       1    CNT1    0.240
    640     C    4.896  -46.859   -2.028    C.ar       1    CNT1   -0.280
    641     O    6.014    1.238    0.000     O.3       1    CNT1   -0.530
    642     H    6.994    1.238    0.000       H       1    CNT1    0.370
    643     H    5.093    0.944    2.858       H       1    CNT1    0.180
    644     O    4.253    1.238    4.253     O.3       1    CNT1   -0.530
    645     H    4.946    1.238    4.946       H       1    CNT1    0.370
    646     H    1.580    0.944    5.622       H       1    CNT1    0.180
    647     O    0.000    1.238    6.014     O.3       1    CNT1   -0.530
    648     H    0.000    1.238    6.994       H       1    CNT1    0.370
    649     H   -2.858    0.944    5.093       H       1    CNT1    0.180
    650     O   -4.253    1.238    4.253     O.3       1    CNT1   -0.530
    651     H   -4.946    1.238    4.946       H       1    CNT1    0.370
    652     H   -5.622    0.944    1.580       H       1    CNT1    0.180
    653     O   -6.014    1.238    0.000     O.3       1    CNT1   -0.530
    654     H   -6.994    1.238    0.000       H       1    CNT1    0.370
    655     H   -5.093    0.944   -2.858       H       1    CNT1    0.180
    656     O   -4.253    1.238   -4.253     O.3       1    CNT1   -0.530
    657     H   -4.946    1.238   -4.946       H       1    CNT1    0.370
    658     H   -1.580    0.944   -5.622       H       1    CNT1    0.180
    659     O   -0.000    1.238   -6.014     O.3       1    CNT1   -0.530
    660     H   -0.000    1.238   -6.994       H       1    CNT1    0.370
    661     H    2.858    0.944   -5.093       H       1    CNT1    0.180
    662     O    4.253    1.238   -4.253     O.3       1    CNT1   -0.530
    663     H    4.946    1.238   -4.946       H       1    CNT1    0.370
    664     H    5.622    0.944   -1.580       H       1    CNT1    0.180
    665     O    5.969  -48.098    0.692     O.3       1    CNT1   -0.530
    666     H    6.949  -48.098    0.692       H       1    CNT1    0.370
    667     H    5.400  -47.803    2.237       H       1    CNT1    0.180
    668     O    3.732  -48.098    4.710     O.3       1    CNT1   -0.530
    669     H    4.425  -48.098    5.403       H       1    CNT1    0.370
    670     H    2.237  -47.803    5.400       H       1    CNT1    0.180
    671     O   -0.692  -48.098    5.969     O.3       1    CNT1   -0.530
    672     H   -0.692  -48.098    6.949       H       1    CNT1    0.370
    673     H   -2.237  -47.803    5.400       H       1    CNT1    0.180
    674     O   -4.710  -48.098    3.732     O.3       1    CNT1   -0.530
    675     H   -5.403  -48.098    4.425       H       1    CNT1    0.370
    676     H   -5.400  -47.803    2.237       H       1    CNT1    0.180
    677     O   -5.969  -48.098   -0.692     O.3       1    CNT1   -0.530
    678     H   -6.949  -48.098   -0.692       H       1    CNT1    0.370
    679     H   -5.400  -47.803   -2.237       H       1    CNT1    0.180
    680     O   -3.732  -48.098   -4.710     O.3       1    CNT1   -0.530
    681     H   -4.425  -48.098   -5.403       H       1    CNT1    0.370
    682     H   -2.237  -47.803   -5.400       H       1    CNT1    0.180
    683     O    0.692  -48.098   -5.969     O.3       1    CNT1   -0.530
    684     H    0.692  -48.098   -6.949       H       1    CNT1    0.370
    685     H    2.237  -47.803   -5.400       H       1    CNT1    0.180
    686     O    4.710  -48.098   -3.732     O.3       1    CNT1   -0.530
    687     H    5.403  -48.098   -4.425       H       1    CNT1    0.370
    688     H    5.400  -47.803   -2.237       H       1    CNT1    0.180
@<TRIPOS>BOND
      1       1      16      ar
      2       1      17      ar
      3       1     641       1
      4       2       3      ar
      5       2      18      ar
      6       2     643       1
      7       3      19      ar
      8       3     644       1
      9       4       5      ar
     10       4      20      ar
     11       4     646       1
     12       5      21      ar
     13       5     647       1
     14       6       7      ar
     15       6      22      ar
     16       6     649       1
     17       7      23      ar
     18       7     650       1
     19       8       9      ar
     20       8      24      ar
     21       8     652       1
     22       9      25      ar
     23       9     653       1
     24      10      11      ar
     25      10      26      ar
     26      10     655       1
     27      11      27      ar
     28      11     656       1
     29      12      13      ar
     30      12      28      ar
     31      12     658       1
     32      13      29      ar
     33      13     659       1
     34      14      15      ar
     35      14      30      ar
     36      14     661       1
     37      15      31      ar
     38      15     662       1
     39      16      32      ar
     40      16     664       1
     41      17      18      ar
     42      17      33      ar
     43      18      34      ar
     44      19      20      ar
     45      19      35      ar
     46      20      36      ar
     47      21      22      ar
     48      21      37      ar
     49      22      38      ar
     50      23      24      ar
     51      23      39      ar
     52      24      40      ar
     53      25      26      ar
     54      25      41      ar
     55      26      42      ar
     56      27      28      ar
     57      27      43      ar
     58      28      44      ar
     59      29      30      ar
     60      29      45      ar
     61      30      46      ar
     62      31      32      ar
     63      31      47      ar
     64      32      48      ar
     65      33      48      ar
     66      33      49      ar
     67      34      35      ar
     68      34      50      ar
     69      35      51      ar
     70      36      37      ar
     71      36      52      ar
     72      37      53      ar
     73      38      39      ar
     74      38      54      ar
     75      39      55      ar
     76      40      41      ar
     77      40      56      ar
     78      41      57      ar
     79      42      43      ar
     80      42      58      ar
     81      43      59      ar
     82      44      45      ar
     83      44      60      ar
     84      45      61      ar
     85      46      47      ar
     86      46      62      ar
     87      47      63      ar
     88      48      64      ar
     89      49      50      ar
     90      49      65      ar
     91      50      66      ar
     92      51      52      ar
     93      51      67      ar
     94      52      68      ar
     95      53      54      ar
     96      53      69      ar
     97      54      70      ar
     98      55      56      ar
     99      55      71      ar
    100      56      72      ar
    101      57      58      ar
    102      57      73      ar
    103      58      74      ar
    104      59      60      ar
    105      59      75      ar
    106      60      76      ar
    107      61      62      ar
    108      61      77      ar
    109      62      78      ar
    110      63      64      ar
    111      63      79      ar
    112      64      80      ar
    113      65      80      ar
    114      65      81      ar
    115      66      67      ar
    116      66      82      ar
    117      67      83      ar
    118      68      69      ar
    119      68      84      ar
    120      69      85      ar
    121      70      71      ar
    122      70      86      ar
    123      71      87      ar
    124      72      73      ar
    125      72      88      ar
    126      73      89      ar
    127      74      75      ar
    128      74      90      ar
    129      75      91      ar
    130      76      77      ar
    131      76      92      ar
    132      77      93      ar
    133      78      79      ar
    134      78      94      ar
    135      79      95      ar
    136      80      96      ar
    137      81      82      ar
    138      81      97      ar
    139      82      98      ar
    140      83      84      ar
    141      83      99      ar
    142      84     100      ar
    143      85      86      ar
    144      85     101      ar
    145      86     102      ar
    146      87      88      ar
    147      87     103      ar
    148      88     104      ar
    149      89      90      ar
    150      89     105      ar
    151      90     106      ar
    152      91      92      ar
    153      91     107      ar
    154      92     108      ar
    155      93      94      ar
    156      93     109      ar
    157      94     110      ar
    158      95      96      ar
    159      95     111      ar
    160      96     112      ar
    161      97     112      ar
    162      97     113      ar
    163      98      99      ar
    164      98     114      ar
    165      99     115      ar
    166     100     101      ar
    167     100     116      ar
    168     101     117      ar
    169     102     103      ar
    170     102     118      ar
    171     103     119      ar
    172     104     105      ar
    173     104     120      ar
    174     105     121      ar
    175     106     107      ar
    176     106     122      ar
    177     107     123      ar
    178     108     109      ar
    179     108     124      ar
    180     109     125      ar
    181     110     111      ar
    182     110     126      ar
    183     111     127      ar
    184     112     128      ar
    185     113     114      ar
    186     113     129      ar
    187     114     130      ar
    188     115     116      ar
    189     115     131      ar
    190     116     132      ar
    191     117     118      ar
    192     117     133      ar
    193     118     134      ar
    194     119     120      ar
    195     119     135      ar
    196     120     136      ar
    197     121     122      ar
    198     121     137      ar
    199     122     138      ar
    200     123     124      ar
    201     123     139      ar
    202     124     140      ar
    203     125     126      ar
    204     125     141      ar
    205     126     142      ar
    206     127     128      ar
    207     127     143      ar
    208     128     144      ar
    209     129     144      ar
    210     129     145      ar
    211     130     131      ar
    212     130     146      ar
    213     131     147      ar
    214     132     133      ar
    215     132     148      ar
    216     133     149      ar
    217     134     135      ar
    218     134     150      ar
    219     135     151      ar
    220     136     137      ar
    221     136     152      ar
    222     137     153      ar
    223     138     139      ar
    224     138     154      ar
    225     139     155      ar
    226     140     141      ar
    227     140     156      ar
    228     141     157      ar
    229     142     143      ar
    230     142     158      ar
    231     143     159      ar
    232     144     160      ar
    233     145     146      ar
    234     145     161      ar
    235     146     162      ar
    236     147     148      ar
    237     147     163      ar
    238     148     164      ar
    239     149     150      ar
    240     149     165      ar
    241     150     166      ar
    242     151     152      ar
    243     151     167      ar
    244     152     168      ar
    245     153     154      ar
    246     153     169      ar
    247     154     170      ar
    248     155     156      ar
    249     155     171      ar
    250     156     172      ar
    251     157     158      ar
    252     157     173      ar
    253     158     174      ar
    254     159     160      ar
    255     159     175      ar
    256     160     176      ar
    257     161     176      ar
    258     161     177      ar
    259     162     163      ar
    260     162     178      ar
    261     163     179      ar
    262     164     165      ar
    263     164     180      ar
    264     165     181      ar
    265     166     167      ar
    266     166     182      ar
    267     167     183      ar
    268     168     169      ar
    269     168     184      ar
    270     169     185      ar
    271     170     171      ar
    272     170     186      ar
    273     171     187      ar
    274     172     173      ar
    275     172     188      ar
    276     173     189      ar
    277     174     175      ar
    278     174     190      ar
    279     175     191      ar
    280     176     192      ar
    281     177     178      ar
    282     177     193      ar
    283     178     194      ar
    284     179     180      ar
    285     179     195      ar
    286     180     196      ar
    287     181     182      ar
    288     181     197      ar
    289     182     198      ar
    290     183     184      ar
    291     183     199      ar
    292     184     200      ar
    293     185     186      ar
    294     185     201      ar
    295     186     202      ar
    296     187     188      ar
    297     187     203      ar
    298     188     204      ar
    299     189     190      ar
    300     189     205      ar
    301     190     206      ar
    302     191     192      ar
    303     191     207      ar
    304     192     208      ar
    305     193     208      ar
    306     193     209      ar
    307     194     195      ar
    308     194     210      ar
    309     195     211      ar
    310     196     197      ar
    311     196     212      ar
    312     197     213      ar
    313     198     199      ar
    314     198     214      ar
    315     199     215      ar
    316     200     201      ar
    317     200     216      ar
    318     201     217      ar
    319     202     203      ar
    320     202     218      ar
    321     203     219      ar
    322     204     205      ar
    323     204     220      ar
    324     205     221      ar
    325     206     207      ar
    326     206     222      ar
    327     207     223      ar
    328     208     224      ar
    329     209     210      ar
    330     209     225      ar
    331     210     226      ar
    332     211     212      ar
    333     211     227      ar
    334     212     228      ar
    335     213     214      ar
    336     213     229      ar
    337     214     230      ar
    338     215     216      ar
    339     215     231      ar
    340     216     232      ar
    341     217     218      ar
    342     217     233      ar
    343     218     234      ar
    344     219     220      ar
    345     219     235      ar
    346     220     236      ar
    347     221     222      ar
    348     221     237      ar
    349     222     238      ar
    350     223     224      ar
    351     223     239      ar
    352     224     240      ar
    353     225     240      ar
    354     225     241      ar
    355     226     227      ar
    356     226     242      ar
    357     227     243      ar
    358     228     229      ar
    359     228     244      ar
    360     229     245      ar
    361     230     231      ar
    362     230     246      ar
    363     231     247      ar
    364     232     233      ar
    365     232     248      ar
    366     233     249      ar
    367     234     235      ar
    368     234     250      ar
    369     235     251      ar
    370     236     237      ar
    371     236     252      ar
    372     237     253      ar
    373     238     239      ar
    374     238     254      ar
    375     239     255      ar
    376     240     256      ar
    377     241     242      ar
    378     241     257      ar
    379     242     258      ar
    380     243     244      ar
    381     243     259      ar
    382     244     260      ar
    383     245     246      ar
    384     245     261      ar
    385     246     262      ar
    386     247     248      ar
    387     247     263      ar
    388     248     264      ar
    389     249     250      ar
    390     249     265      ar
    391     250     266      ar
    392     251     252      ar
    393     251     267      ar
    394     252     268      ar
    395     253     254      ar
    396     253     269      ar
    397     254     270      ar
    398     255     256      ar
    399     255     271      ar
    400     256     272      ar
    401     257     272      ar
    402     257     273      ar
    403     258     259      ar
    404     258     274      ar
    405     259     275      ar
    406     260     261      ar
    407     260     276      ar
    408     261     277      ar
    409     262     263      ar
    410     262     278      ar
    411     263     279      ar
    412     264     265      ar
    413     264     280      ar
    414     265     281      ar
    415     266     267      ar
    416     266     282      ar
    417     267     283      ar
    418     268     269      ar
    419     268     284      ar
    420     269     285      ar
    421     270     271      ar
    422     270     286      ar
    423     271     287      ar
    424     272     288      ar
    425     273     274      ar
    426     273     289      ar
    427     274     290      ar
    428     275     276      ar
    429     275     291      ar
    430     276     292      ar
    431     277     278      ar
    432     277     293      ar
    433     278     294      ar
    434     279     280      ar
    435     279     295      ar
    436     280     296      ar
    437     281     282      ar
    438     281     297      ar
    439     282     298      ar
    440     283     284      ar
    441     283     299      ar
    442     284     300      ar
    443     285     286      ar
    444     285     301      ar
    445     286     302      ar
    446     287     288      ar
    447     287     303      ar
    448     288     304      ar
    449     289     304      ar
    450     289     305      ar
    451     290     291      ar
    452     290     306      ar
    453     291     307      ar
    454     292     293      ar
    455     292     308      ar
    456     293     309      ar
    457     294     295      ar
    458     294     310      ar
    459     295     311      ar
    460     296     297      ar
    461     296     312      ar
    462     297     313      ar
    463     298     299      ar
    464     298     314      ar
    465     299     315      ar
    466     300     301      ar
    467     300     316      ar
    468     301     317      ar
    469     302     303      ar
    470     302     318      ar
    471     303     319      ar
    472     304     320      ar
    473     305     306      ar
    474     305     321      ar
    475     306     322      ar
    476     307     308      ar
    477     307     323      ar
    478     308     324      ar
    479     309     310      ar
    480     309     325      ar
    481     310     326      ar
    482     311     312      ar
    483     311     327      ar
    484     312     328      ar
    485     313     314      ar
    486     313     329      ar
    487     314     330      ar
    488     315     316      ar
    489     315     331      ar
    490     316     332      ar
    491     317     318      ar
    492     317     333      ar
    493     318     334      ar
    494     319     320      ar
    495     319     335      ar
    496     320     336      ar
    497     321     336      ar
    498     321     337      ar
    499     322     323      ar
    500     322     338      ar
    501     323     339      ar
    502     324     325      ar
    503     324     340      ar
    504     325     341      ar
    505     326     327      ar
    506     326     342      ar
    507     327     343      ar
    508     328     329      ar
    509     328     344      ar
    510     329     345      ar
    511     330     331      ar
    512     330     346      ar
    513     331     347      ar
    514     332     333      ar
    515     332     348      ar
    516     333     349      ar
    517     334     335      ar
    518     334     350      ar
    519     335     351      ar
    520     336     352      ar
    521     337     338      ar
    522     337     353      ar
    523     338     354      ar
    524     339     340      ar
    525     339     355      ar
    526     340     356      ar
    527     341     342      ar
    528     341     357      ar
    529     342     358      ar
    530     343     344      ar
    531     343     359      ar
    532     344     360      ar
    533     345     346      ar
    534     345     361      ar
    535     346     362      ar
    536     347     348      ar
    537     347     363      ar
    538     348     364      ar
    539     349     350      ar
    540     349     365      ar
    541     350     366      ar
    542     351     352      ar
    543     351     367      ar
    544     352     368      ar
    545     353     368      ar
    546     353     369      ar
    547     354     355      ar
    548     354     370      ar
    549     355     371      ar
    550     356     357      ar
    551     356     372      ar
    552     357     373      ar
    553     358     359      ar
    554     358     374      ar
    555     359     375      ar
    556     360     361      ar
    557     360     376      ar
    558     361     377      ar
    559     362     363      ar
    560     362     378      ar
    561     363     379      ar
    562     364     365      ar
    563     364     380      ar
    564     365     381      ar
    565     366     367      ar
    566     366     382      ar
    567     367     383      ar
    568     368     384      ar
    569     369     370      ar
    570     369     385      ar
    571     370     386      ar
    572     371     372      ar
    573     371     387      ar
    574     372     388      ar
    575     373     374      ar
    576     373     389      ar
    577     374     390      ar
    578     375     376      ar
    579     375     391      ar
    580     376     392      ar
    581     377     378      ar
    582     377     393      ar
    583     378     394      ar
    584     379     380      ar
    585     379     395      ar
    586     380     396      ar
    587     381     382      ar
    588     381     397      ar
    589     382     398      ar
    590     383     384      ar
    591     383     399      ar
    592     384     400      ar
    593     385     400      ar
    594     385     401      ar
    595     386     387      ar
    596     386     402      ar
    597     387     403      ar
    598     388     389      ar
    599     388     404      ar
    600     389     405      ar
    601     390     391      ar
    602     390     406      ar
    603     391     407      ar
    604     392     393      ar
    605     392     408      ar
    606     393     409      ar
    607     394     395      ar
    608     394     410      ar
    609     395     411      ar
    610     396     397      ar
    611     396     412      ar
    612     397     413      ar
    613     398     399      ar
    614     398     414      ar
    615     399     415      ar
    616     400     416      ar
    617     401     402      ar
    618     401     417      ar
    619     402     418      ar
    620     403     404      ar
    621     403     419      ar
    622     404     420      ar
    623     405     406      ar
    624     405     421      ar
    625     406     422      ar
    626     407     408      ar
    627     407     423      ar
    628     408     424      ar
    629     409     410      ar
    630     409     425      ar
    631     410     426      ar
    632     411     412      ar
    633     411     427      ar
    634     412     428      ar
    635     413     414      ar
    636     413     429      ar
    637     414     430      ar
    638     415     416      ar
    639     415     431      ar
    640     416     432      ar
    641     417     432      ar
    642     417     433      ar
    643     418     419      ar
    644     418     434      ar
    645     419     435      ar
    646     420     421      ar
    647     420     436      ar
    648     421     437      ar
    649     422     423      ar
    650     422     438      ar
    651     423     439      ar
    652     424     425      ar
    653     424     440      ar
    654     425     441      ar
    655     426     427      ar
    656     426     442      ar
    657     427     443      ar
    658     428     429      ar
    659     428     444      ar
    660     429     445      ar
    661     430     431      ar
    662     430     446      ar
    663     431     447      ar
    664     432     448      ar
    665     433     434      ar
    666     433     449      ar
    667     434     450      ar
    668     435     436      ar
    669     435     451      ar
    670     436     452      ar
    671     437     438      ar
    672     437     453      ar
    673     438     454      ar
    674     439     440      ar
    675     439     455      ar
    676     440     456      ar
    677     441     442      ar
    678     441     457      ar
    679     442     458      ar
    680     443     444      ar
    681     443     459      ar
    682     444     460      ar
    683     445     446      ar
    684     445     461      ar
    685     446     462      ar
    686     447     448      ar
    687     447     463      ar
    688     448     464      ar
    689     449     464      ar
    690     449     465      ar
    691     450     451      ar
    692     450     466      ar
    693     451     467      ar
    694     452     453      ar
    695     452     468      ar
    696     453     469      ar
    697     454     455      ar
    698     454     470      ar
    699     455     471      ar
    700     456     457      ar
    701     456     472      ar
    702     457     473      ar
    703     458     459      ar
    704     458     474      ar
    705     459     475      ar
    706     460     461      ar
    707     460     476      ar
    708     461     477      ar
    709     462     463      ar
    710     462     478      ar
    711     463     479      ar
    712     464     480      ar
    713     465     466      ar
    714     465     481      ar
    715     466     482      ar
    716     467     468      ar
    717     467     483      ar
    718     468     484      ar
    719     469     470      ar
    720     469     485      ar
    721     470     486      ar
    722     471     472      ar
    723     471     487      ar
    724     472     488      ar
    725     473     474      ar
    726     473     489      ar
    727     474     490      ar
    728     475     476      ar
    729     475     491      ar
    730     476     492      ar
    731     477     478      ar
    732     477     493      ar
    733     478     494      ar
    734     479     480      ar
    735     479     495      ar
    736     480     496      ar
    737     481     496      ar
    738     481     497      ar
    739     482     483      ar
    740     482     498      ar
    741     483     499      ar
    742     484     485      ar
    743     484     500      ar
    744     485     501      ar
    745     486     487      ar
    746     486     502      ar
    747     487     503      ar
    748     488     489      ar
    749     488     504      ar
    750     489     505      ar
    751     490     491      ar
    752     490     506      ar
    753     491     507      ar
    754     492     493      ar
    755     492     508      ar
    756     493     509      ar
    757     494     495      ar
    758     494     510      ar
    759     495     511      ar
    760     496     512      ar
    761     497     498      ar
    762     497     513      ar
    763     498     514      ar
    764     499     500      ar
    765     499     515      ar
    766     500     516      ar
    767     501     502      ar
    768     501     517      ar
    769     502     518      ar
    770     503     504      ar
    771     503     519      ar
    772     504     520      ar
    773     505     506      ar
    774     505     521      ar
    775     506     522      ar
    776     507     508      ar
    777     507     523      ar
    778     508     524      ar
    779     509     510      ar
    780     509     525      ar
    781     510     526      ar
    782     511     512      ar
    783     511     527      ar
    784     512     528      ar
    785     513     528      ar
    786     513     529      ar
    787     514     515      ar
    788     514     530      ar
    789     515     531      ar
    790     516     517      ar
    791     516     532      ar
    792     517     533      ar
    793     518     519      ar
    794     518     534      ar
    795     519     535      ar
    796     520     521      ar
    797     520     536      ar
    798     521     537      ar
    799     522     523      ar
    800     522     538      ar
    801     523     539      ar
    802     524     525      ar
    803     524     540      ar
    804     525     541      ar
    805     526     527      ar
    806     526     542      ar
    807     527     543      ar
    808     528     544      ar
    809     529     530      ar
    810     529     545      ar
    811     530     546      ar
    812     531     532      ar
    813     531     547      ar
    814     532     548      ar
    815     533     534      ar
    816     533     549      ar
    817     534     550      ar
    818     535     536      ar
    819     535     551      ar
    820     536     552      ar
    821     537     538      ar
    822     537     553      ar
    823     538     554      ar
    824     539     540      ar
    825     539     555      ar
    826     540     556      ar
    827     541     542      ar
    828     541     557      ar
    829     542     558      ar
    830     543     544      ar
    831     543     559      ar
    832     544     560      ar
    833     545     560      ar
    834     545     561      ar
    835     546     547      ar
    836     546     562      ar
    837     547     563      ar
    838     548     549      ar
    839     548     564      ar
    840     549     565      ar
    841     550     551      ar
    842     550     566      ar
    843     551     567      ar
    844     552     553      ar
    845     552     568      ar
    846     553     569      ar
    847     554     555      ar
    848     554     570      ar
    849     555     571      ar
    850     556     557      ar
    851     556     572      ar
    852     557     573      ar
    853     558     559      ar
    854     558     574      ar
    855     559     575      ar
    856     560     576      ar
    857     561     562      ar
    858     561     577      ar
    859     562     578      ar
    860     563     564      ar
    861     563     579      ar
    862     564     580      ar
    863     565     566      ar
    864     565     581      ar
    865     566     582      ar
    866     567     568      ar
    867     567     583      ar
    868     568     584      ar
    869     569     570      ar
    870     569     585      ar
    871     570     586      ar
    872     571     572      ar
    873     571     587      ar
    874     572     588      ar
    875     573     574      ar
    876     573     589      ar
    877     574     590      ar
    878     575     576      ar
    879     575     591      ar
    880     576     592      ar
    881     577     592      ar
    882     577     593      ar
    883     578     579      ar
    884     578     594      ar
    885     579     595      ar
    886     580     581      ar
    887     580     596      ar
    888     581     597      ar
    889     582     583      ar
    890     582     598      ar
    891     583     599      ar
    892     584     585      ar
    893     584     600      ar
    894     585     601      ar
    895     586     587      ar
    896     586     602      ar
    897     587     603      ar
    898     588     589      ar
    899     588     604      ar
    900     589     605      ar
    901     590     591      ar
    902     590     606      ar
    903     591     607      ar
    904     592     608      ar
    905     593     594      ar
    906     593     609      ar
    907     594     610      ar
    908     595     596      ar
    909     595     611      ar
    910     596     612      ar
    911     597     598      ar
    912     597     613      ar
    913     598     614      ar
    914     599     600      ar
    915     599     615      ar
    916     600     616      ar
    917     601     602      ar
    918     601     617      ar
    919     602     618      ar
    920     603     604      ar
    921     603     619      ar
    922     604     620      ar
    923     605     606      ar
    924     605     621      ar
    925     606     622      ar
    926     607     608      ar
    927     607     623      ar
    928     608     624      ar
    929     609     624      ar
    930     609     625      ar
    931     610     611      ar
    932     610     626      ar
    933     611     627      ar
    934     612     613      ar
    935     612     628      ar
    936     613     629      ar
    937     614     615      ar
    938     614     630      ar
    939     615     631      ar
    940     616     617      ar
    941     616     632      ar
    942     617     633      ar
    943     618     619      ar
    944     618     634      ar
    945     619     635      ar
    946     620     621      ar
    947     620     636      ar
    948     621     637      ar
    949     622     623      ar
    950     622     638      ar
    951     623     639      ar
    952     624     640      ar
    953     625     626      ar
    954     625     665       1
    955     626     667       1
    956     627     628      ar
    957     627     668       1
    958     628     670       1
    959     629     630      ar
    960     629     671       1
    961     630     673       1
    962     631     632      ar
    963     631     674       1
    964     632     676       1
    965     633     634      ar
    966     633     677       1
    967     634     679       1
    968     635     636      ar
    969     635     680       1
    970     636     682       1
    971     637     638      ar
    972     637     683       1
    973     638     685       1
    974     639     640      ar
    975     639     686       1
    976     640     688       1
    977     641     642       1
    978     644     645       1
    979     647     648       1
    980     650     651       1
    981     653     654       1
    982     656     657       1
    983     659     660       1
    984     662     663       1
    985     665     666       1
    986     668     669       1
    987     671     672       1
    988     674     675       1
    989     677     678       1
    990     680     681       1
    991     683     684       1
    992     686     687       1
