@<TRIPOS>MOLECULE
CNT
 624 900 0 0 0
SMALL
USER_CHARGES

@<TRIPOS>ATOM
      1     C    4.589    0.000    0.000    C.ar       1    CNT1   -0.330
      2     C    3.975    0.000    2.295    C.ar       1    CNT1   -0.430
      3     C    2.295    0.000    3.975    C.ar       1    CNT1   -0.330
      4     C    0.000    0.000    4.589    C.ar       1    CNT1   -0.430
      5     C   -2.295    0.000    3.975    C.ar       1    CNT1   -0.330
      6     C   -3.975    0.000    2.295    C.ar       1    CNT1   -0.430
      7     C   -4.589    0.000    0.000    C.ar       1    CNT1   -0.330
      8     C   -3.975    0.000   -2.295    C.ar       1    CNT1   -0.430
      9     C   -2.295    0.000   -3.975    C.ar       1    CNT1   -0.330
     10     C   -0.000    0.000   -4.589    C.ar       1    CNT1   -0.430
     11     C    2.295    0.000   -3.975    C.ar       1    CNT1   -0.330
     12     C    3.975    0.000   -2.295    C.ar       1    CNT1   -0.430
     13     C    4.433   -0.694    1.188    C.ar       1    CNT1    0.090
     14     C    3.245   -0.694    3.245    C.ar       1    CNT1    0.090
     15     C    1.188   -0.694    4.433    C.ar       1    CNT1    0.090
     16     C   -1.188   -0.694    4.433    C.ar       1    CNT1    0.090
     17     C   -3.245   -0.694    3.245    C.ar       1    CNT1    0.090
     18     C   -4.433   -0.694    1.188    C.ar       1    CNT1    0.090
     19     C   -4.433   -0.694   -1.188    C.ar       1    CNT1    0.090
     20     C   -3.245   -0.694   -3.245    C.ar       1    CNT1    0.090
     21     C   -1.188   -0.694   -4.433    C.ar       1    CNT1    0.090
     22     C    1.188   -0.694   -4.433    C.ar       1    CNT1    0.090
     23     C    3.245   -0.694   -3.245    C.ar       1    CNT1    0.090
     24     C    4.433   -0.694   -1.188    C.ar       1    CNT1    0.090
     25     C    4.433   -2.081    1.188    C.ar       1    CNT1    0.000
     26     C    3.245   -2.081    3.245    C.ar       1    CNT1    0.000
     27     C    1.188   -2.081    4.433    C.ar       1    CNT1    0.000
     28     C   -1.188   -2.081    4.433    C.ar       1    CNT1    0.000
     29     C   -3.245   -2.081    3.245    C.ar       1    CNT1    0.000
     30     C   -4.433   -2.081    1.188    C.ar       1    CNT1    0.000
     31     C   -4.433   -2.081   -1.188    C.ar       1    CNT1    0.000
     32     C   -3.245   -2.081   -3.245    C.ar       1    CNT1    0.000
     33     C   -1.188   -2.081   -4.433    C.ar       1    CNT1    0.000
     34     C    1.188   -2.081   -4.433    C.ar       1    CNT1    0.000
     35     C    3.245   -2.081   -3.245    C.ar       1    CNT1    0.000
     36     C    4.433   -2.081   -1.188    C.ar       1    CNT1    0.000
     37     C    4.589   -2.775    0.000    C.ar       1    CNT1    0.000
     38     C    3.975   -2.775    2.295    C.ar       1    CNT1    0.000
     39     C    2.295   -2.775    3.975    C.ar       1    CNT1    0.000
     40     C    0.000   -2.775    4.589    C.ar       1    CNT1    0.000
     41     C   -2.295   -2.775    3.975    C.ar       1    CNT1    0.000
     42     C   -3.975   -2.775    2.295    C.ar       1    CNT1    0.000
     43     C   -4.589   -2.775    0.000    C.ar       1    CNT1    0.000
     44     C   -3.975   -2.775   -2.295    C.ar       1    CNT1    0.000
     45     C   -2.295   -2.775   -3.975    C.ar       1    CNT1    0.000
     46     C   -0.000   -2.775   -4.589    C.ar       1    CNT1    0.000
     47     C    2.295   -2.775   -3.975    C.ar       1    CNT1    0.000
     48     C    3.975   -2.775   -2.295    C.ar       1    CNT1    0.000
     49     C    4.589   -4.162    0.000    C.ar       1    CNT1    0.000
     50     C    3.975   -4.162    2.295    C.ar       1    CNT1    0.000
     51     C    2.295   -4.162    3.975    C.ar       1    CNT1    0.000
     52     C    0.000   -4.162    4.589    C.ar       1    CNT1    0.000
     53     C   -2.295   -4.162    3.975    C.ar       1    CNT1    0.000
     54     C   -3.975   -4.162    2.295    C.ar       1    CNT1    0.000
     55     C   -4.589   -4.162    0.000    C.ar       1    CNT1    0.000
     56     C   -3.975   -4.162   -2.295    C.ar       1    CNT1    0.000
     57     C   -2.295   -4.162   -3.975    C.ar       1    CNT1    0.000
     58     C   -0.000   -4.162   -4.589    C.ar       1    CNT1    0.000
     59     C    2.295   -4.162   -3.975    C.ar       1    CNT1    0.000
     60     C    3.975   -4.162   -2.295    C.ar       1    CNT1    0.000
     61     C    4.433   -4.856    1.188    C.ar       1    CNT1    0.000
     62     C    3.245   -4.856    3.245    C.ar       1    CNT1    0.000
     63     C    1.188   -4.856    4.433    C.ar       1    CNT1    0.000
     64     C   -1.188   -4.856    4.433    C.ar       1    CNT1    0.000
     65     C   -3.245   -4.856    3.245    C.ar       1    CNT1    0.000
     66     C   -4.433   -4.856    1.188    C.ar       1    CNT1    0.000
     67     C   -4.433   -4.856   -1.188    C.ar       1    CNT1    0.000
     68     C   -3.245   -4.856   -3.245    C.ar       1    CNT1    0.000
     69     C   -1.188   -4.856   -4.433    C.ar       1    CNT1    0.000
     70     C    1.188   -4.856   -4.433    C.ar       1    CNT1    0.000
     71     C    3.245   -4.856   -3.245    C.ar       1    CNT1    0.000
     72     C    4.433   -4.856   -1.188    C.ar       1    CNT1    0.000
     73     C    4.433   -6.243    1.188    C.ar       1    CNT1    0.000
     74     C    3.245   -6.243    3.245    C.ar       1    CNT1    0.000
     75     C    1.188   -6.243    4.433    C.ar       1    CNT1    0.000
     76     C   -1.188   -6.243    4.433    C.ar       1    CNT1    0.000
     77     C   -3.245   -6.243    3.245    C.ar       1    CNT1    0.000
     78     C   -4.433   -6.243    1.188    C.ar       1    CNT1    0.000
     79     C   -4.433   -6.243   -1.188    C.ar       1    CNT1    0.000
     80     C   -3.245   -6.243   -3.245    C.ar       1    CNT1    0.000
     81     C   -1.188   -6.243   -4.433    C.ar       1    CNT1    0.000
     82     C    1.188   -6.243   -4.433    C.ar       1    CNT1    0.000
     83     C    3.245   -6.243   -3.245    C.ar       1    CNT1    0.000
     84     C    4.433   -6.243   -1.188    C.ar       1    CNT1    0.000
     85     C    4.589   -6.937    0.000    C.ar       1    CNT1    0.000
     86     C    3.975   -6.937    2.295    C.ar       1    CNT1    0.000
     87     C    2.295   -6.937    3.975    C.ar       1    CNT1    0.000
     88     C    0.000   -6.937    4.589    C.ar       1    CNT1    0.000
     89     C   -2.295   -6.937    3.975    C.ar       1    CNT1    0.000
     90     C   -3.975   -6.937    2.295    C.ar       1    CNT1    0.000
     91     C   -4.589   -6.937    0.000    C.ar       1    CNT1    0.000
     92     C   -3.975   -6.937   -2.295    C.ar       1    CNT1    0.000
     93     C   -2.295   -6.937   -3.975    C.ar       1    CNT1    0.000
     94     C   -0.000   -6.937   -4.589    C.ar       1    CNT1    0.000
     95     C    2.295   -6.937   -3.975    C.ar       1    CNT1    0.000
     96     C    3.975   -6.937   -2.295    C.ar       1    CNT1    0.000
     97     C    4.589   -8.324    0.000    C.ar       1    CNT1    0.000
     98     C    3.975   -8.324    2.295    C.ar       1    CNT1    0.000
     99     C    2.295   -8.324    3.975    C.ar       1    CNT1    0.000
    100     C    0.000   -8.324    4.589    C.ar       1    CNT1    0.000
    101     C   -2.295   -8.324    3.975    C.ar       1    CNT1    0.000
    102     C   -3.975   -8.324    2.295    C.ar       1    CNT1    0.000
    103     C   -4.589   -8.324    0.000    C.ar       1    CNT1    0.000
    104     C   -3.975   -8.324   -2.295    C.ar       1    CNT1    0.000
    105     C   -2.295   -8.324   -3.975    C.ar       1    CNT1    0.000
    106     C   -0.000   -8.324   -4.589    C.ar       1    CNT1    0.000
    107     C    2.295   -8.324   -3.975    C.ar       1    CNT1    0.000
    108     C    3.975   -8.324   -2.295    C.ar       1    CNT1    0.000
    109     C    4.433   -9.018    1.188    C.ar       1    CNT1    0.000
    110     C    3.245   -9.018    3.245    C.ar       1    CNT1    0.000
    111     C    1.188   -9.018    4.433    C.ar       1    CNT1    0.000
    112     C   -1.188   -9.018    4.433    C.ar       1    CNT1    0.000
    113     C   -3.245   -9.018    3.245    C.ar       1    CNT1    0.000
    114     C   -4.433   -9.018    1.188    C.ar       1    CNT1    0.000
    115     C   -4.433   -9.018   -1.188    C.ar       1    CNT1    0.000
    116     C   -3.245   -9.018   -3.245    C.ar       1    CNT1    0.000
    117     C   -1.188   -9.018   -4.433    C.ar       1    CNT1    0.000
    118     C    1.188   -9.018   -4.433    C.ar       1    CNT1    0.000
    119     C    3.245   -9.018   -3.245    C.ar       1    CNT1    0.000
    120     C    4.433   -9.018   -1.188    C.ar       1    CNT1    0.000
    121     C    4.433  -10.405    1.188    C.ar       1    CNT1    0.000
    122     C    3.245  -10.405    3.245    C.ar       1    CNT1    0.000
    123     C    1.188  -10.405    4.433    C.ar       1    CNT1    0.000
    124     C   -1.188  -10.405    4.433    C.ar       1    CNT1    0.000
    125     C   -3.245  -10.405    3.245    C.ar       1    CNT1    0.000
    126     C   -4.433  -10.405    1.188    C.ar       1    CNT1    0.000
    127     C   -4.433  -10.405   -1.188    C.ar       1    CNT1    0.000
    128     C   -3.245  -10.405   -3.245    C.ar       1    CNT1    0.000
    129     C   -1.188  -10.405   -4.433    C.ar       1    CNT1    0.000
    130     C    1.188  -10.405   -4.433    C.ar       1    CNT1    0.000
    131     C    3.245  -10.405   -3.245    C.ar       1    CNT1    0.000
    132     C    4.433  -10.405   -1.188    C.ar       1    CNT1    0.000
    133     C    4.589  -11.099    0.000    C.ar       1    CNT1    0.000
    134     C    3.975  -11.099    2.295    C.ar       1    CNT1    0.000
    135     C    2.295  -11.099    3.975    C.ar       1    CNT1    0.000
    136     C    0.000  -11.099    4.589    C.ar       1    CNT1    0.000
    137     C   -2.295  -11.099    3.975    C.ar       1    CNT1    0.000
    138     C   -3.975  -11.099    2.295    C.ar       1    CNT1    0.000
    139     C   -4.589  -11.099    0.000    C.ar       1    CNT1    0.000
    140     C   -3.975  -11.099   -2.295    C.ar       1    CNT1    0.000
    141     C   -2.295  -11.099   -3.975    C.ar       1    CNT1    0.000
    142     C   -0.000  -11.099   -4.589    C.ar       1    CNT1    0.000
    143     C    2.295  -11.099   -3.975    C.ar       1    CNT1    0.000
    144     C    3.975  -11.099   -2.295    C.ar       1    CNT1    0.000
    145     C    4.589  -12.487    0.000    C.ar       1    CNT1    0.000
    146     C    3.975  -12.487    2.295    C.ar       1    CNT1    0.000
    147     C    2.295  -12.487    3.975    C.ar       1    CNT1    0.000
    148     C    0.000  -12.487    4.589    C.ar       1    CNT1    0.000
    149     C   -2.295  -12.487    3.975    C.ar       1    CNT1    0.000
    150     C   -3.975  -12.487    2.295    C.ar       1    CNT1    0.000
    151     C   -4.589  -12.487    0.000    C.ar       1    CNT1    0.000
    152     C   -3.975  -12.487   -2.295    C.ar       1    CNT1    0.000
    153     C   -2.295  -12.487   -3.975    C.ar       1    CNT1    0.000
    154     C   -0.000  -12.487   -4.589    C.ar       1    CNT1    0.000
    155     C    2.295  -12.487   -3.975    C.ar       1    CNT1    0.000
    156     C    3.975  -12.487   -2.295    C.ar       1    CNT1    0.000
    157     C    4.433  -13.180    1.188    C.ar       1    CNT1    0.000
    158     C    3.245  -13.180    3.245    C.ar       1    CNT1    0.000
    159     C    1.188  -13.180    4.433    C.ar       1    CNT1    0.000
    160     C   -1.188  -13.180    4.433    C.ar       1    CNT1    0.000
    161     C   -3.245  -13.180    3.245    C.ar       1    CNT1    0.000
    162     C   -4.433  -13.180    1.188    C.ar       1    CNT1    0.000
    163     C   -4.433  -13.180   -1.188    C.ar       1    CNT1    0.000
    164     C   -3.245  -13.180   -3.245    C.ar       1    CNT1    0.000
    165     C   -1.188  -13.180   -4.433    C.ar       1    CNT1    0.000
    166     C    1.188  -13.180   -4.433    C.ar       1    CNT1    0.000
    167     C    3.245  -13.180   -3.245    C.ar       1    CNT1    0.000
    168     C    4.433  -13.180   -1.188    C.ar       1    CNT1    0.000
    169     C    4.433  -14.568    1.188    C.ar       1    CNT1    0.000
    170     C    3.245  -14.568    3.245    C.ar       1    CNT1    0.000
    171     C    1.188  -14.568    4.433    C.ar       1    CNT1    0.000
    172     C   -1.188  -14.568    4.433    C.ar       1    CNT1    0.000
    173     C   -3.245  -14.568    3.245    C.ar       1    CNT1    0.000
    174     C   -4.433  -14.568    1.188    C.ar       1    CNT1    0.000
    175     C   -4.433  -14.568   -1.188    C.ar       1    CNT1    0.000
    176     C   -3.245  -14.568   -3.245    C.ar       1    CNT1    0.000
    177     C   -1.188  -14.568   -4.433    C.ar       1    CNT1    0.000
    178     C    1.188  -14.568   -4.433    C.ar       1    CNT1    0.000
    179     C    3.245  -14.568   -3.245    C.ar       1    CNT1    0.000
    180     C    4.433  -14.568   -1.188    C.ar       1    CNT1    0.000
    181     C    4.589  -15.261    0.000    C.ar       1    CNT1    0.000
    182     C    3.975  -15.261    2.295    C.ar       1    CNT1    0.000
    183     C    2.295  -15.261    3.975    C.ar       1    CNT1    0.000
    184     C    0.000  -15.261    4.589    C.ar       1    CNT1    0.000
    185     C   -2.295  -15.261    3.975    C.ar       1    CNT1    0.000
    186     C   -3.975  -15.261    2.295    C.ar       1    CNT1    0.000
    187     C   -4.589  -15.261    0.000    C.ar       1    CNT1    0.000
    188     C   -3.975  -15.261   -2.295    C.ar       1    CNT1    0.000
    189     C   -2.295  -15.261   -3.975    C.ar       1    CNT1    0.000
    190     C   -0.000  -15.261   -4.589    C.ar       1    CNT1    0.000
    191     C    2.295  -15.261   -3.975    C.ar       1    CNT1    0.000
    192     C    3.975  -15.261   -2.295    C.ar       1    CNT1    0.000
    193     C    4.589  -16.649    0.000    C.ar       1    CNT1    0.000
    194     C    3.975  -16.649    2.295    C.ar       1    CNT1    0.000
    195     C    2.295  -16.649    3.975    C.ar       1    CNT1    0.000
    196     C    0.000  -16.649    4.589    C.ar       1    CNT1    0.000
    197     C   -2.295  -16.649    3.975    C.ar       1    CNT1    0.000
    198     C   -3.975  -16.649    2.295    C.ar       1    CNT1    0.000
    199     C   -4.589  -16.649    0.000    C.ar       1    CNT1    0.000
    200     C   -3.975  -16.649   -2.295    C.ar       1    CNT1    0.000
    201     C   -2.295  -16.649   -3.975    C.ar       1    CNT1    0.000
    202     C   -0.000  -16.649   -4.589    C.ar       1    CNT1    0.000
    203     C    2.295  -16.649   -3.975    C.ar       1    CNT1    0.000
    204     C    3.975  -16.649   -2.295    C.ar       1    CNT1    0.000
    205     C    4.433  -17.342    1.188    C.ar       1    CNT1    0.000
    206     C    3.245  -17.342    3.245    C.ar       1    CNT1    0.000
    207     C    1.188  -17.342    4.433    C.ar       1    CNT1    0.000
    208     C   -1.188  -17.342    4.433    C.ar       1    CNT1    0.000
    209     C   -3.245  -17.342    3.245    C.ar       1    CNT1    0.000
    210     C   -4.433  -17.342    1.188    C.ar       1    CNT1    0.000
    211     C   -4.433  -17.342   -1.188    C.ar       1    CNT1    0.000
    212     C   -3.245  -17.342   -3.245    C.ar       1    CNT1    0.000
    213     C   -1.188  -17.342   -4.433    C.ar       1    CNT1    0.000
    214     C    1.188  -17.342   -4.433    C.ar       1    CNT1    0.000
    215     C    3.245  -17.342   -3.245    C.ar       1    CNT1    0.000
    216     C    4.433  -17.342   -1.188    C.ar       1    CNT1    0.000
    217     C    4.433  -18.730    1.188    C.ar       1    CNT1    0.000
    218     C    3.245  -18.730    3.245    C.ar       1    CNT1    0.000
    219     C    1.188  -18.730    4.433    C.ar       1    CNT1    0.000
    220     C   -1.188  -18.730    4.433    C.ar       1    CNT1    0.000
    221     C   -3.245  -18.730    3.245    C.ar       1    CNT1    0.000
    222     C   -4.433  -18.730    1.188    C.ar       1    CNT1    0.000
    223     C   -4.433  -18.730   -1.188    C.ar       1    CNT1    0.000
    224     C   -3.245  -18.730   -3.245    C.ar       1    CNT1    0.000
    225     C   -1.188  -18.730   -4.433    C.ar       1    CNT1    0.000
    226     C    1.188  -18.730   -4.433    C.ar       1    CNT1    0.000
    227     C    3.245  -18.730   -3.245    C.ar       1    CNT1    0.000
    228     C    4.433  -18.730   -1.188    C.ar       1    CNT1    0.000
    229     C    4.589  -19.424    0.000    C.ar       1    CNT1    0.000
    230     C    3.975  -19.424    2.295    C.ar       1    CNT1    0.000
    231     C    2.295  -19.424    3.975    C.ar       1    CNT1    0.000
    232     C    0.000  -19.424    4.589    C.ar       1    CNT1    0.000
    233     C   -2.295  -19.424    3.975    C.ar       1    CNT1    0.000
    234     C   -3.975  -19.424    2.295    C.ar       1    CNT1    0.000
    235     C   -4.589  -19.424    0.000    C.ar       1    CNT1    0.000
    236     C   -3.975  -19.424   -2.295    C.ar       1    CNT1    0.000
    237     C   -2.295  -19.424   -3.975    C.ar       1    CNT1    0.000
    238     C   -0.000  -19.424   -4.589    C.ar       1    CNT1    0.000
    239     C    2.295  -19.424   -3.975    C.ar       1    CNT1    0.000
    240     C    3.975  -19.424   -2.295    C.ar       1    CNT1    0.000
    241     C    4.589  -20.811    0.000    C.ar       1    CNT1    0.000
    242     C    3.975  -20.811    2.295    C.ar       1    CNT1    0.000
    243     C    2.295  -20.811    3.975    C.ar       1    CNT1    0.000
    244     C    0.000  -20.811    4.589    C.ar       1    CNT1    0.000
    245     C   -2.295  -20.811    3.975    C.ar       1    CNT1    0.000
    246     C   -3.975  -20.811    2.295    C.ar       1    CNT1    0.000
    247     C   -4.589  -20.811    0.000    C.ar       1    CNT1    0.000
    248     C   -3.975  -20.811   -2.295    C.ar       1    CNT1    0.000
    249     C   -2.295  -20.811   -3.975    C.ar       1    CNT1    0.000
    250     C   -0.000  -20.811   -4.589    C.ar       1    CNT1    0.000
    251     C    2.295  -20.811   -3.975    C.ar       1    CNT1    0.000
    252     C    3.975  -20.811   -2.295    C.ar       1    CNT1    0.000
    253     C    4.433  -21.505    1.188    C.ar       1    CNT1    0.000
    254     C    3.245  -21.505    3.245    C.ar       1    CNT1    0.000
    255     C    1.188  -21.505    4.433    C.ar       1    CNT1    0.000
    256     C   -1.188  -21.505    4.433    C.ar       1    CNT1    0.000
    257     C   -3.245  -21.505    3.245    C.ar       1    CNT1    0.000
    258     C   -4.433  -21.505    1.188    C.ar       1    CNT1    0.000
    259     C   -4.433  -21.505   -1.188    C.ar       1    CNT1    0.000
    260     C   -3.245  -21.505   -3.245    C.ar       1    CNT1    0.000
    261     C   -1.188  -21.505   -4.433    C.ar       1    CNT1    0.000
    262     C    1.188  -21.505   -4.433    C.ar       1    CNT1    0.000
    263     C    3.245  -21.505   -3.245    C.ar       1    CNT1    0.000
    264     C    4.433  -21.505   -1.188    C.ar       1    CNT1    0.000
    265     C    4.433  -22.892    1.188    C.ar       1    CNT1    0.000
    266     C    3.245  -22.892    3.245    C.ar       1    CNT1    0.000
    267     C    1.188  -22.892    4.433    C.ar       1    CNT1    0.000
    268     C   -1.188  -22.892    4.433    C.ar       1    CNT1    0.000
    269     C   -3.245  -22.892    3.245    C.ar       1    CNT1    0.000
    270     C   -4.433  -22.892    1.188    C.ar       1    CNT1    0.000
    271     C   -4.433  -22.892   -1.188    C.ar       1    CNT1    0.000
    272     C   -3.245  -22.892   -3.245    C.ar       1    CNT1    0.000
    273     C   -1.188  -22.892   -4.433    C.ar       1    CNT1    0.000
    274     C    1.188  -22.892   -4.433    C.ar       1    CNT1    0.000
    275     C    3.245  -22.892   -3.245    C.ar       1    CNT1    0.000
    276     C    4.433  -22.892   -1.188    C.ar       1    CNT1    0.000
    277     C    4.589  -23.586    0.000    C.ar       1    CNT1    0.000
    278     C    3.975  -23.586    2.295    C.ar       1    CNT1    0.000
    279     C    2.295  -23.586    3.975    C.ar       1    CNT1    0.000
    280     C    0.000  -23.586    4.589    C.ar       1    CNT1    0.000
    281     C   -2.295  -23.586    3.975    C.ar       1    CNT1    0.000
    282     C   -3.975  -23.586    2.295    C.ar       1    CNT1    0.000
    283     C   -4.589  -23.586    0.000    C.ar       1    CNT1    0.000
    284     C   -3.975  -23.586   -2.295    C.ar       1    CNT1    0.000
    285     C   -2.295  -23.586   -3.975    C.ar       1    CNT1    0.000
    286     C   -0.000  -23.586   -4.589    C.ar       1    CNT1    0.000
    287     C    2.295  -23.586   -3.975    C.ar       1    CNT1    0.000
    288     C    3.975  -23.586   -2.295    C.ar       1    CNT1    0.000
    289     C    4.589  -24.973    0.000    C.ar       1    CNT1    0.000
    290     C    3.975  -24.973    2.295    C.ar       1    CNT1    0.000
    291     C    2.295  -24.973    3.975    C.ar       1    CNT1    0.000
    292     C    0.000  -24.973    4.589    C.ar       1    CNT1    0.000
    293     C   -2.295  -24.973    3.975    C.ar       1    CNT1    0.000
    294     C   -3.975  -24.973    2.295    C.ar       1    CNT1    0.000
    295     C   -4.589  -24.973    0.000    C.ar       1    CNT1    0.000
    296     C   -3.975  -24.973   -2.295    C.ar       1    CNT1    0.000
    297     C   -2.295  -24.973   -3.975    C.ar       1    CNT1    0.000
    298     C   -0.000  -24.973   -4.589    C.ar       1    CNT1    0.000
    299     C    2.295  -24.973   -3.975    C.ar       1    CNT1    0.000
    300     C    3.975  -24.973   -2.295    C.ar       1    CNT1    0.000
    301     C    4.433  -25.667    1.188    C.ar       1    CNT1    0.000
    302     C    3.245  -25.667    3.245    C.ar       1    CNT1    0.000
    303     C    1.188  -25.667    4.433    C.ar       1    CNT1    0.000
    304     C   -1.188  -25.667    4.433    C.ar       1    CNT1    0.000
    305     C   -3.245  -25.667    3.245    C.ar       1    CNT1    0.000
    306     C   -4.433  -25.667    1.188    C.ar       1    CNT1    0.000
    307     C   -4.433  -25.667   -1.188    C.ar       1    CNT1    0.000
    308     C   -3.245  -25.667   -3.245    C.ar       1    CNT1    0.000
    309     C   -1.188  -25.667   -4.433    C.ar       1    CNT1    0.000
    310     C    1.188  -25.667   -4.433    C.ar       1    CNT1    0.000
    311     C    3.245  -25.667   -3.245    C.ar       1    CNT1    0.000
    312     C    4.433  -25.667   -1.188    C.ar       1    CNT1    0.000
    313     C    4.433  -27.054    1.188    C.ar       1    CNT1    0.000
    314     C    3.245  -27.054    3.245    C.ar       1    CNT1    0.000
    315     C    1.188  -27.054    4.433    C.ar       1    CNT1    0.000
    316     C   -1.188  -27.054    4.433    C.ar       1    CNT1    0.000
    317     C   -3.245  -27.054    3.245    C.ar       1    CNT1    0.000
    318     C   -4.433  -27.054    1.188    C.ar       1    CNT1    0.000
    319     C   -4.433  -27.054   -1.188    C.ar       1    CNT1    0.000
    320     C   -3.245  -27.054   -3.245    C.ar       1    CNT1    0.000
    321     C   -1.188  -27.054   -4.433    C.ar       1    CNT1    0.000
    322     C    1.188  -27.054   -4.433    C.ar       1    CNT1    0.000
    323     C    3.245  -27.054   -3.245    C.ar       1    CNT1    0.000
    324     C    4.433  -27.054   -1.188    C.ar       1    CNT1    0.000
    325     C    4.589  -27.748    0.000    C.ar       1    CNT1    0.000
    326     C    3.975  -27.748    2.295    C.ar       1    CNT1    0.000
    327     C    2.295  -27.748    3.975    C.ar       1    CNT1    0.000
    328     C    0.000  -27.748    4.589    C.ar       1    CNT1    0.000
    329     C   -2.295  -27.748    3.975    C.ar       1    CNT1    0.000
    330     C   -3.975  -27.748    2.295    C.ar       1    CNT1    0.000
    331     C   -4.589  -27.748    0.000    C.ar       1    CNT1    0.000
    332     C   -3.975  -27.748   -2.295    C.ar       1    CNT1    0.000
    333     C   -2.295  -27.748   -3.975    C.ar       1    CNT1    0.000
    334     C   -0.000  -27.748   -4.589    C.ar       1    CNT1    0.000
    335     C    2.295  -27.748   -3.975    C.ar       1    CNT1    0.000
    336     C    3.975  -27.748   -2.295    C.ar       1    CNT1    0.000
    337     C    4.589  -29.135    0.000    C.ar       1    CNT1    0.000
    338     C    3.975  -29.135    2.295    C.ar       1    CNT1    0.000
    339     C    2.295  -29.135    3.975    C.ar       1    CNT1    0.000
    340     C    0.000  -29.135    4.589    C.ar       1    CNT1    0.000
    341     C   -2.295  -29.135    3.975    C.ar       1    CNT1    0.000
    342     C   -3.975  -29.135    2.295    C.ar       1    CNT1    0.000
    343     C   -4.589  -29.135    0.000    C.ar       1    CNT1    0.000
    344     C   -3.975  -29.135   -2.295    C.ar       1    CNT1    0.000
    345     C   -2.295  -29.135   -3.975    C.ar       1    CNT1    0.000
    346     C   -0.000  -29.135   -4.589    C.ar       1    CNT1    0.000
    347     C    2.295  -29.135   -3.975    C.ar       1    CNT1    0.000
    348     C    3.975  -29.135   -2.295    C.ar       1    CNT1    0.000
    349     C    4.433  -29.829    1.188    C.ar       1    CNT1    0.000
    350     C    3.245  -29.829    3.245    C.ar       1    CNT1    0.000
    351     C    1.188  -29.829    4.433    C.ar       1    CNT1    0.000
    352     C   -1.188  -29.829    4.433    C.ar       1    CNT1    0.000
    353     C   -3.245  -29.829    3.245    C.ar       1    CNT1    0.000
    354     C   -4.433  -29.829    1.188    C.ar       1    CNT1    0.000
    355     C   -4.433  -29.829   -1.188    C.ar       1    CNT1    0.000
    356     C   -3.245  -29.829   -3.245    C.ar       1    CNT1    0.000
    357     C   -1.188  -29.829   -4.433    C.ar       1    CNT1    0.000
    358     C    1.188  -29.829   -4.433    C.ar       1    CNT1    0.000
    359     C    3.245  -29.829   -3.245    C.ar       1    CNT1    0.000
    360     C    4.433  -29.829   -1.188    C.ar       1    CNT1    0.000
    361     C    4.433  -31.216    1.188    C.ar       1    CNT1    0.000
    362     C    3.245  -31.216    3.245    C.ar       1    CNT1    0.000
    363     C    1.188  -31.216    4.433    C.ar       1    CNT1    0.000
    364     C   -1.188  -31.216    4.433    C.ar       1    CNT1    0.000
    365     C   -3.245  -31.216    3.245    C.ar       1    CNT1    0.000
    366     C   -4.433  -31.216    1.188    C.ar       1    CNT1    0.000
    367     C   -4.433  -31.216   -1.188    C.ar       1    CNT1    0.000
    368     C   -3.245  -31.216   -3.245    C.ar       1    CNT1    0.000
    369     C   -1.188  -31.216   -4.433    C.ar       1    CNT1    0.000
    370     C    1.188  -31.216   -4.433    C.ar       1    CNT1    0.000
    371     C    3.245  -31.216   -3.245    C.ar       1    CNT1    0.000
    372     C    4.433  -31.216   -1.188    C.ar       1    CNT1    0.000
    373     C    4.589  -31.910    0.000    C.ar       1    CNT1    0.000
    374     C    3.975  -31.910    2.295    C.ar       1    CNT1    0.000
    375     C    2.295  -31.910    3.975    C.ar       1    CNT1    0.000
    376     C    0.000  -31.910    4.589    C.ar       1    CNT1    0.000
    377     C   -2.295  -31.910    3.975    C.ar       1    CNT1    0.000
    378     C   -3.975  -31.910    2.295    C.ar       1    CNT1    0.000
    379     C   -4.589  -31.910    0.000    C.ar       1    CNT1    0.000
    380     C   -3.975  -31.910   -2.295    C.ar       1    CNT1    0.000
    381     C   -2.295  -31.910   -3.975    C.ar       1    CNT1    0.000
    382     C   -0.000  -31.910   -4.589    C.ar       1    CNT1    0.000
    383     C    2.295  -31.910   -3.975    C.ar       1    CNT1    0.000
    384     C    3.975  -31.910   -2.295    C.ar       1    CNT1    0.000
    385     C    4.589  -33.298    0.000    C.ar       1    CNT1    0.000
    386     C    3.975  -33.298    2.295    C.ar       1    CNT1    0.000
    387     C    2.295  -33.298    3.975    C.ar       1    CNT1    0.000
    388     C    0.000  -33.298    4.589    C.ar       1    CNT1    0.000
    389     C   -2.295  -33.298    3.975    C.ar       1    CNT1    0.000
    390     C   -3.975  -33.298    2.295    C.ar       1    CNT1    0.000
    391     C   -4.589  -33.298    0.000    C.ar       1    CNT1    0.000
    392     C   -3.975  -33.298   -2.295    C.ar       1    CNT1    0.000
    393     C   -2.295  -33.298   -3.975    C.ar       1    CNT1    0.000
    394     C   -0.000  -33.298   -4.589    C.ar       1    CNT1    0.000
    395     C    2.295  -33.298   -3.975    C.ar       1    CNT1    0.000
    396     C    3.975  -33.298   -2.295    C.ar       1    CNT1    0.000
    397     C    4.433  -33.991    1.188    C.ar       1    CNT1    0.000
    398     C    3.245  -33.991    3.245    C.ar       1    CNT1    0.000
    399     C    1.188  -33.991    4.433    C.ar       1    CNT1    0.000
    400     C   -1.188  -33.991    4.433    C.ar       1    CNT1    0.000
    401     C   -3.245  -33.991    3.245    C.ar       1    CNT1    0.000
    402     C   -4.433  -33.991    1.188    C.ar       1    CNT1    0.000
    403     C   -4.433  -33.991   -1.188    C.ar       1    CNT1    0.000
    404     C   -3.245  -33.991   -3.245    C.ar       1    CNT1    0.000
    405     C   -1.188  -33.991   -4.433    C.ar       1    CNT1    0.000
    406     C    1.188  -33.991   -4.433    C.ar       1    CNT1    0.000
    407     C    3.245  -33.991   -3.245    C.ar       1    CNT1    0.000
    408     C    4.433  -33.991   -1.188    C.ar       1    CNT1    0.000
    409     C    4.433  -35.379    1.188    C.ar       1    CNT1    0.000
    410     C    3.245  -35.379    3.245    C.ar       1    CNT1    0.000
    411     C    1.188  -35.379    4.433    C.ar       1    CNT1    0.000
    412     C   -1.188  -35.379    4.433    C.ar       1    CNT1    0.000
    413     C   -3.245  -35.379    3.245    C.ar       1    CNT1    0.000
    414     C   -4.433  -35.379    1.188    C.ar       1    CNT1    0.000
    415     C   -4.433  -35.379   -1.188    C.ar       1    CNT1    0.000
    416     C   -3.245  -35.379   -3.245    C.ar       1    CNT1    0.000
    417     C   -1.188  -35.379   -4.433    C.ar       1    CNT1    0.000
    418     C    1.188  -35.379   -4.433    C.ar       1    CNT1    0.000
    419     C    3.245  -35.379   -3.245    C.ar       1    CNT1    0.000
    420     C    4.433  -35.379   -1.188    C.ar       1    CNT1    0.000
    421     C    4.589  -36.072    0.000    C.ar       1    CNT1    0.000
    422     C    3.975  -36.072    2.295    C.ar       1    CNT1    0.000
    423     C    2.295  -36.072    3.975    C.ar       1    CNT1    0.000
    424     C    0.000  -36.072    4.589    C.ar       1    CNT1    0.000
    425     C   -2.295  -36.072    3.975    C.ar       1    CNT1    0.000
    426     C   -3.975  -36.072    2.295    C.ar       1    CNT1    0.000
    427     C   -4.589  -36.072    0.000    C.ar       1    CNT1    0.000
    428     C   -3.975  -36.072   -2.295    C.ar       1    CNT1    0.000
    429     C   -2.295  -36.072   -3.975    C.ar       1    CNT1    0.000
    430     C   -0.000  -36.072   -4.589    C.ar       1    CNT1    0.000
    431     C    2.295  -36.072   -3.975    C.ar       1    CNT1    0.000
    432     C    3.975  -36.072   -2.295    C.ar       1    CNT1    0.000
    433     C    4.589  -37.460    0.000    C.ar       1    CNT1    0.000
    434     C    3.975  -37.460    2.295    C.ar       1    CNT1    0.000
    435     C    2.295  -37.460    3.975    C.ar       1    CNT1    0.000
    436     C    0.000  -37.460    4.589    C.ar       1    CNT1    0.000
    437     C   -2.295  -37.460    3.975    C.ar       1    CNT1    0.000
    438     C   -3.975  -37.460    2.295    C.ar       1    CNT1    0.000
    439     C   -4.589  -37.460    0.000    C.ar       1    CNT1    0.000
    440     C   -3.975  -37.460   -2.295    C.ar       1    CNT1    0.000
    441     C   -2.295  -37.460   -3.975    C.ar       1    CNT1    0.000
    442     C   -0.000  -37.460   -4.589    C.ar       1    CNT1    0.000
    443     C    2.295  -37.460   -3.975    C.ar       1    CNT1    0.000
    444     C    3.975  -37.460   -2.295    C.ar       1    CNT1    0.000
    445     C    4.433  -38.153    1.188    C.ar       1    CNT1    0.000
    446     C    3.245  -38.153    3.245    C.ar       1    CNT1    0.000
    447     C    1.188  -38.153    4.433    C.ar       1    CNT1    0.000
    448     C   -1.188  -38.153    4.433    C.ar       1    CNT1    0.000
    449     C   -3.245  -38.153    3.245    C.ar       1    CNT1    0.000
    450     C   -4.433  -38.153    1.188    C.ar       1    CNT1    0.000
    451     C   -4.433  -38.153   -1.188    C.ar       1    CNT1    0.000
    452     C   -3.245  -38.153   -3.245    C.ar       1    CNT1    0.000
    453     C   -1.188  -38.153   -4.433    C.ar       1    CNT1    0.000
    454     C    1.188  -38.153   -4.433    C.ar       1    CNT1    0.000
    455     C    3.245  -38.153   -3.245    C.ar       1    CNT1    0.000
    456     C    4.433  -38.153   -1.188    C.ar       1    CNT1    0.000
    457     C    4.433  -39.541    1.188    C.ar       1    CNT1    0.000
    458     C    3.245  -39.541    3.245    C.ar       1    CNT1    0.000
    459     C    1.188  -39.541    4.433    C.ar       1    CNT1    0.000
    460     C   -1.188  -39.541    4.433    C.ar       1    CNT1    0.000
    461     C   -3.245  -39.541    3.245    C.ar       1    CNT1    0.000
    462     C   -4.433  -39.541    1.188    C.ar       1    CNT1    0.000
    463     C   -4.433  -39.541   -1.188    C.ar       1    CNT1    0.000
    464     C   -3.245  -39.541   -3.245    C.ar       1    CNT1    0.000
    465     C   -1.188  -39.541   -4.433    C.ar       1    CNT1    0.000
    466     C    1.188  -39.541   -4.433    C.ar       1    CNT1    0.000
    467     C    3.245  -39.541   -3.245    C.ar       1    CNT1    0.000
    468     C    4.433  -39.541   -1.188    C.ar       1    CNT1    0.000
    469     C    4.589  -40.235    0.000    C.ar       1    CNT1    0.000
    470     C    3.975  -40.235    2.295    C.ar       1    CNT1    0.000
    471     C    2.295  -40.235    3.975    C.ar       1    CNT1    0.000
    472     C    0.000  -40.235    4.589    C.ar       1    CNT1    0.000
    473     C   -2.295  -40.235    3.975    C.ar       1    CNT1    0.000
    474     C   -3.975  -40.235    2.295    C.ar       1    CNT1    0.000
    475     C   -4.589  -40.235    0.000    C.ar       1    CNT1    0.000
    476     C   -3.975  -40.235   -2.295    C.ar       1    CNT1    0.000
    477     C   -2.295  -40.235   -3.975    C.ar       1    CNT1    0.000
    478     C   -0.000  -40.235   -4.589    C.ar       1    CNT1    0.000
    479     C    2.295  -40.235   -3.975    C.ar       1    CNT1    0.000
    480     C    3.975  -40.235   -2.295    C.ar       1    CNT1    0.000
    481     C    4.589  -41.622    0.000    C.ar       1    CNT1    0.000
    482     C    3.975  -41.622    2.295    C.ar       1    CNT1    0.000
    483     C    2.295  -41.622    3.975    C.ar       1    CNT1    0.000
    484     C    0.000  -41.622    4.589    C.ar       1    CNT1    0.000
    485     C   -2.295  -41.622    3.975    C.ar       1    CNT1    0.000
    486     C   -3.975  -41.622    2.295    C.ar       1    CNT1    0.000
    487     C   -4.589  -41.622    0.000    C.ar       1    CNT1    0.000
    488     C   -3.975  -41.622   -2.295    C.ar       1    CNT1    0.000
    489     C   -2.295  -41.622   -3.975    C.ar       1    CNT1    0.000
    490     C   -0.000  -41.622   -4.589    C.ar       1    CNT1    0.000
    491     C    2.295  -41.622   -3.975    C.ar       1    CNT1    0.000
    492     C    3.975  -41.622   -2.295    C.ar       1    CNT1    0.000
    493     C    4.433  -42.316    1.188    C.ar       1    CNT1    0.000
    494     C    3.245  -42.316    3.245    C.ar       1    CNT1    0.000
    495     C    1.188  -42.316    4.433    C.ar       1    CNT1    0.000
    496     C   -1.188  -42.316    4.433    C.ar       1    CNT1    0.000
    497     C   -3.245  -42.316    3.245    C.ar       1    CNT1    0.000
    498     C   -4.433  -42.316    1.188    C.ar       1    CNT1    0.000
    499     C   -4.433  -42.316   -1.188    C.ar       1    CNT1    0.000
    500     C   -3.245  -42.316   -3.245    C.ar       1    CNT1    0.000
    501     C   -1.188  -42.316   -4.433    C.ar       1    CNT1    0.000
    502     C    1.188  -42.316   -4.433    C.ar       1    CNT1    0.000
    503     C    3.245  -42.316   -3.245    C.ar       1    CNT1    0.000
    504     C    4.433  -42.316   -1.188    C.ar       1    CNT1    0.000
    505     C    4.433  -43.703    1.188    C.ar       1    CNT1    0.000
    506     C    3.245  -43.703    3.245    C.ar       1    CNT1    0.000
    507     C    1.188  -43.703    4.433    C.ar       1    CNT1    0.000
    508     C   -1.188  -43.703    4.433    C.ar       1    CNT1    0.000
    509     C   -3.245  -43.703    3.245    C.ar       1    CNT1    0.000
    510     C   -4.433  -43.703    1.188    C.ar       1    CNT1    0.000
    511     C   -4.433  -43.703   -1.188    C.ar       1    CNT1    0.000
    512     C   -3.245  -43.703   -3.245    C.ar       1    CNT1    0.000
    513     C   -1.188  -43.703   -4.433    C.ar       1    CNT1    0.000
    514     C    1.188  -43.703   -4.433    C.ar       1    CNT1    0.000
    515     C    3.245  -43.703   -3.245    C.ar       1    CNT1    0.000
    516     C    4.433  -43.703   -1.188    C.ar       1    CNT1    0.000
    517     C    4.589  -44.397    0.000    C.ar       1    CNT1    0.000
    518     C    3.975  -44.397    2.295    C.ar       1    CNT1    0.000
    519     C    2.295  -44.397    3.975    C.ar       1    CNT1    0.000
    520     C    0.000  -44.397    4.589    C.ar       1    CNT1    0.000
    521     C   -2.295  -44.397    3.975    C.ar       1    CNT1    0.000
    522     C   -3.975  -44.397    2.295    C.ar       1    CNT1    0.000
    523     C   -4.589  -44.397    0.000    C.ar       1    CNT1    0.000
    524     C   -3.975  -44.397   -2.295    C.ar       1    CNT1    0.000
    525     C   -2.295  -44.397   -3.975    C.ar       1    CNT1    0.000
    526     C   -0.000  -44.397   -4.589    C.ar       1    CNT1    0.000
    527     C    2.295  -44.397   -3.975    C.ar       1    CNT1    0.000
    528     C    3.975  -44.397   -2.295    C.ar       1    CNT1    0.000
    529     C    4.589  -45.784    0.000    C.ar       1    CNT1    0.000
    530     C    3.975  -45.784    2.295    C.ar       1    CNT1    0.000
    531     C    2.295  -45.784    3.975    C.ar       1    CNT1    0.000
    532     C    0.000  -45.784    4.589    C.ar       1    CNT1    0.000
    533     C   -2.295  -45.784    3.975    C.ar       1    CNT1    0.000
    534     C   -3.975  -45.784    2.295    C.ar       1    CNT1    0.000
    535     C   -4.589  -45.784    0.000    C.ar       1    CNT1    0.000
    536     C   -3.975  -45.784   -2.295    C.ar       1    CNT1    0.000
    537     C   -2.295  -45.784   -3.975    C.ar       1    CNT1    0.000
    538     C   -0.000  -45.784   -4.589    C.ar       1    CNT1    0.000
    539     C    2.295  -45.784   -3.975    C.ar       1    CNT1    0.000
    540     C    3.975  -45.784   -2.295    C.ar       1    CNT1    0.000
    541     C    4.433  -46.478    1.188    C.ar       1    CNT1    0.000
    542     C    3.245  -46.478    3.245    C.ar       1    CNT1    0.000
    543     C    1.188  -46.478    4.433    C.ar       1    CNT1    0.000
    544     C   -1.188  -46.478    4.433    C.ar       1    CNT1    0.000
    545     C   -3.245  -46.478    3.245    C.ar       1    CNT1    0.000
    546     C   -4.433  -46.478    1.188    C.ar       1    CNT1    0.000
    547     C   -4.433  -46.478   -1.188    C.ar       1    CNT1    0.000
    548     C   -3.245  -46.478   -3.245    C.ar       1    CNT1    0.000
    549     C   -1.188  -46.478   -4.433    C.ar       1    CNT1    0.000
    550     C    1.188  -46.478   -4.433    C.ar       1    CNT1    0.000
    551     C    3.245  -46.478   -3.245    C.ar       1    CNT1    0.000
    552     C    4.433  -46.478   -1.188    C.ar       1    CNT1    0.000
    553     C    4.433  -47.865    1.188    C.ar       1    CNT1    0.090
    554     C    3.245  -47.865    3.245    C.ar       1    CNT1    0.090
    555     C    1.188  -47.865    4.433    C.ar       1    CNT1    0.090
    556     C   -1.188  -47.865    4.433    C.ar       1    CNT1    0.090
    557     C   -3.245  -47.865    3.245    C.ar       1    CNT1    0.090
    558     C   -4.433  -47.865    1.188    C.ar       1    CNT1    0.090
    559     C   -4.433  -47.865   -1.188    C.ar       1    CNT1    0.090
    560     C   -3.245  -47.865   -3.245    C.ar       1    CNT1    0.090
    561     C   -1.188  -47.865   -4.433    C.ar       1    CNT1    0.090
    562     C    1.188  -47.865   -4.433    C.ar       1    CNT1    0.090
    563     C    3.245  -47.865   -3.245    C.ar       1    CNT1    0.090
    564     C    4.433  -47.865   -1.188    C.ar       1    CNT1    0.090
    565     C    4.589  -48.559    0.000    C.ar       1    CNT1   -0.330
    566     C    3.975  -48.559    2.295    C.ar       1    CNT1   -0.430
    567     C    2.295  -48.559    3.975    C.ar       1    CNT1   -0.330
    568     C    0.000  -48.559    4.589    C.ar       1    CNT1   -0.430
    569     C   -2.295  -48.559    3.975    C.ar       1    CNT1   -0.330
    570     C   -3.975  -48.559    2.295    C.ar       1    CNT1   -0.430
    571     C   -4.589  -48.559    0.000    C.ar       1    CNT1   -0.330
    572     C   -3.975  -48.559   -2.295    C.ar       1    CNT1   -0.430
    573     C   -2.295  -48.559   -3.975    C.ar       1    CNT1   -0.330
    574     C   -0.000  -48.559   -4.589    C.ar       1    CNT1   -0.430
    575     C    2.295  -48.559   -3.975    C.ar       1    CNT1   -0.330
    576     C    3.975  -48.559   -2.295    C.ar       1    CNT1   -0.430
    577     C    4.589  -50.099    0.000     C.2       1    CNT1    0.910
    578     O    5.601  -50.099   -1.011   O.co2       1    CNT1   -0.860
    579     O    5.601  -50.099    1.011   O.co2       1    CNT1   -0.860
    580     H    3.975  -49.649    2.295       H       1    CNT1    0.390
    581     C    2.295  -50.099    3.975     C.2       1    CNT1    0.910
    582     O    3.676  -50.099    4.345   O.co2       1    CNT1   -0.860
    583     O    1.925  -50.099    5.356   O.co2       1    CNT1   -0.860
    584     H    0.000  -49.649    4.589       H       1    CNT1    0.390
    585     C   -2.295  -50.099    3.975     C.2       1    CNT1    0.910
    586     O   -1.925  -50.099    5.356   O.co2       1    CNT1   -0.860
    587     O   -3.676  -50.099    4.345   O.co2       1    CNT1   -0.860
    588     H   -3.975  -49.649    2.295       H       1    CNT1    0.390
    589     C   -4.589  -50.099    0.000     C.2       1    CNT1    0.910
    590     O   -5.601  -50.099    1.011   O.co2       1    CNT1   -0.860
    591     O   -5.601  -50.099   -1.011   O.co2       1    CNT1   -0.860
    592     H   -3.975  -49.649   -2.295       H       1    CNT1    0.390
    593     C   -2.295  -50.099   -3.975     C.2       1    CNT1    0.910
    594     O   -3.676  -50.099   -4.345   O.co2       1    CNT1   -0.860
    595     O   -1.925  -50.099   -5.356   O.co2       1    CNT1   -0.860
    596     H   -0.000  -49.649   -4.589       H       1    CNT1    0.390
    597     C    2.295  -50.099   -3.975     C.2       1    CNT1    0.910
    598     O    1.925  -50.099   -5.356   O.co2       1    CNT1   -0.860
    599     O    3.676  -50.099   -4.345   O.co2       1    CNT1   -0.860
    600     H    3.975  -49.649   -2.295       H       1    CNT1    0.390
    601     C    4.589    1.540    0.000     C.2       1    CNT1    0.910
    602     O    5.601    1.540   -1.011   O.co2       1    CNT1   -0.860
    603     O    5.601    1.540    1.011   O.co2       1    CNT1   -0.860
    604     H    3.975    1.090    2.295       H       1    CNT1    0.390
    605     C    2.295    1.540    3.975     C.2       1    CNT1    0.910
    606     O    3.676    1.540    4.345   O.co2       1    CNT1   -0.860
    607     O    1.925    1.540    5.356   O.co2       1    CNT1   -0.860
    608     H    0.000    1.090    4.589       H       1    CNT1    0.390
    609     C   -2.295    1.540    3.975     C.2       1    CNT1    0.910
    610     O   -1.925    1.540    5.356   O.co2       1    CNT1   -0.860
    611     O   -3.676    1.540    4.345   O.co2       1    CNT1   -0.860
    612     H   -3.975    1.090    2.295       H       1    CNT1    0.390
    613     C   -4.589    1.540    0.000     C.2       1    CNT1    0.910
    614     O   -5.601    1.540    1.011   O.co2       1    CNT1   -0.860
    615     O   -5.601    1.540   -1.011   O.co2       1    CNT1   -0.860
    616     H   -3.975    1.090   -2.295       H       1    CNT1    0.390
    617     C   -2.295    1.540   -3.975     C.2       1    CNT1    0.910
    618     O   -3.676    1.540   -4.345   O.co2       1    CNT1   -0.860
    619     O   -1.925    1.540   -5.356   O.co2       1    CNT1   -0.860
    620     H   -0.000    1.090   -4.589       H       1    CNT1    0.390
    621     C    2.295    1.540   -3.975     C.2       1    CNT1    0.910
    622     O    1.925    1.540   -5.356   O.co2       1    CNT1   -0.860
    623     O    3.676    1.540   -4.345   O.co2       1    CNT1   -0.860
    624     H    3.975    1.090   -2.295       H       1    CNT1    0.390
@<TRIPOS>BOND
      1       1      13      ar
      2       1      24      ar
      3       1     601       1
      4       2      13      ar
      5       2      14      ar
      6       2     604       1
      7       3      14      ar
      8       3      15      ar
      9       3     605       1
     10       4      15      ar
     11       4      16      ar
     12       4     608       1
     13       5      16      ar
     14       5      17      ar
     15       5     609       1
     16       6      17      ar
     17       6      18      ar
     18       6     612       1
     19       7      18      ar
     20       7      19      ar
     21       7     613       1
     22       8      19      ar
     23       8      20      ar
     24       8     616       1
     25       9      20      ar
     26       9      21      ar
     27       9     617       1
     28      10      21      ar
     29      10      22      ar
     30      10     620       1
     31      11      22      ar
     32      11      23      ar
     33      11     621       1
     34      12      23      ar
     35      12      24      ar
     36      12     624       1
     37      13      25      ar
     38      14      26      ar
     39      15      27      ar
     40      16      28      ar
     41      17      29      ar
     42      18      30      ar
     43      19      31      ar
     44      20      32      ar
     45      21      33      ar
     46      22      34      ar
     47      23      35      ar
     48      24      36      ar
     49      25      37      ar
     50      25      38      ar
     51      26      38      ar
     52      26      39      ar
     53      27      39      ar
     54      27      40      ar
     55      28      40      ar
     56      28      41      ar
     57      29      41      ar
     58      29      42      ar
     59      30      42      ar
     60      30      43      ar
     61      31      43      ar
     62      31      44      ar
     63      32      44      ar
     64      32      45      ar
     65      33      45      ar
     66      33      46      ar
     67      34      46      ar
     68      34      47      ar
     69      35      47      ar
     70      35      48      ar
     71      36      37      ar
     72      36      48      ar
     73      37      49      ar
     74      38      50      ar
     75      39      51      ar
     76      40      52      ar
     77      41      53      ar
     78      42      54      ar
     79      43      55      ar
     80      44      56      ar
     81      45      57      ar
     82      46      58      ar
     83      47      59      ar
     84      48      60      ar
     85      49      61      ar
     86      49      72      ar
     87      50      61      ar
     88      50      62      ar
     89      51      62      ar
     90      51      63      ar
     91      52      63      ar
     92      52      64      ar
     93      53      64      ar
     94      53      65      ar
     95      54      65      ar
     96      54      66      ar
     97      55      66      ar
     98      55      67      ar
     99      56      67      ar
    100      56      68      ar
    101      57      68      ar
    102      57      69      ar
    103      58      69      ar
    104      58      70      ar
    105      59      70      ar
    106      59      71      ar
    107      60      71      ar
    108      60      72      ar
    109      61      73      ar
    110      62      74      ar
    111      63      75      ar
    112      64      76      ar
    113      65      77      ar
    114      66      78      ar
    115      67      79      ar
    116      68      80      ar
    117      69      81      ar
    118      70      82      ar
    119      71      83      ar
    120      72      84      ar
    121      73      85      ar
    122      73      86      ar
    123      74      86      ar
    124      74      87      ar
    125      75      87      ar
    126      75      88      ar
    127      76      88      ar
    128      76      89      ar
    129      77      89      ar
    130      77      90      ar
    131      78      90      ar
    132      78      91      ar
    133      79      91      ar
    134      79      92      ar
    135      80      92      ar
    136      80      93      ar
    137      81      93      ar
    138      81      94      ar
    139      82      94      ar
    140      82      95      ar
    141      83      95      ar
    142      83      96      ar
    143      84      85      ar
    144      84      96      ar
    145      85      97      ar
    146      86      98      ar
    147      87      99      ar
    148      88     100      ar
    149      89     101      ar
    150      90     102      ar
    151      91     103      ar
    152      92     104      ar
    153      93     105      ar
    154      94     106      ar
    155      95     107      ar
    156      96     108      ar
    157      97     109      ar
    158      97     120      ar
    159      98     109      ar
    160      98     110      ar
    161      99     110      ar
    162      99     111      ar
    163     100     111      ar
    164     100     112      ar
    165     101     112      ar
    166     101     113      ar
    167     102     113      ar
    168     102     114      ar
    169     103     114      ar
    170     103     115      ar
    171     104     115      ar
    172     104     116      ar
    173     105     116      ar
    174     105     117      ar
    175     106     117      ar
    176     106     118      ar
    177     107     118      ar
    178     107     119      ar
    179     108     119      ar
    180     108     120      ar
    181     109     121      ar
    182     110     122      ar
    183     111     123      ar
    184     112     124      ar
    185     113     125      ar
    186     114     126      ar
    187     115     127      ar
    188     116     128      ar
    189     117     129      ar
    190     118     130      ar
    191     119     131      ar
    192     120     132      ar
    193     121     133      ar
    194     121     134      ar
    195     122     134      ar
    196     122     135      ar
    197     123     135      ar
    198     123     136      ar
    199     124     136      ar
    200     124     137      ar
    201     125     137      ar
    202     125     138      ar
    203     126     138      ar
    204     126     139      ar
    205     127     139      ar
    206     127     140      ar
    207     128     140      ar
    208     128     141      ar
    209     129     141      ar
    210     129     142      ar
    211     130     142      ar
    212     130     143      ar
    213     131     143      ar
    214     131     144      ar
    215     132     133      ar
    216     132     144      ar
    217     133     145      ar
    218     134     146      ar
    219     135     147      ar
    220     136     148      ar
    221     137     149      ar
    222     138     150      ar
    223     139     151      ar
    224     140     152      ar
    225     141     153      ar
    226     142     154      ar
    227     143     155      ar
    228     144     156      ar
    229     145     157      ar
    230     145     168      ar
    231     146     157      ar
    232     146     158      ar
    233     147     158      ar
    234     147     159      ar
    235     148     159      ar
    236     148     160      ar
    237     149     160      ar
    238     149     161      ar
    239     150     161      ar
    240     150     162      ar
    241     151     162      ar
    242     151     163      ar
    243     152     163      ar
    244     152     164      ar
    245     153     164      ar
    246     153     165      ar
    247     154     165      ar
    248     154     166      ar
    249     155     166      ar
    250     155     167      ar
    251     156     167      ar
    252     156     168      ar
    253     157     169      ar
    254     158     170      ar
    255     159     171      ar
    256     160     172      ar
    257     161     173      ar
    258     162     174      ar
    259     163     175      ar
    260     164     176      ar
    261     165     177      ar
    262     166     178      ar
    263     167     179      ar
    264     168     180      ar
    265     169     181      ar
    266     169     182      ar
    267     170     182      ar
    268     170     183      ar
    269     171     183      ar
    270     171     184      ar
    271     172     184      ar
    272     172     185      ar
    273     173     185      ar
    274     173     186      ar
    275     174     186      ar
    276     174     187      ar
    277     175     187      ar
    278     175     188      ar
    279     176     188      ar
    280     176     189      ar
    281     177     189      ar
    282     177     190      ar
    283     178     190      ar
    284     178     191      ar
    285     179     191      ar
    286     179     192      ar
    287     180     181      ar
    288     180     192      ar
    289     181     193      ar
    290     182     194      ar
    291     183     195      ar
    292     184     196      ar
    293     185     197      ar
    294     186     198      ar
    295     187     199      ar
    296     188     200      ar
    297     189     201      ar
    298     190     202      ar
    299     191     203      ar
    300     192     204      ar
    301     193     205      ar
    302     193     216      ar
    303     194     205      ar
    304     194     206      ar
    305     195     206      ar
    306     195     207      ar
    307     196     207      ar
    308     196     208      ar
    309     197     208      ar
    310     197     209      ar
    311     198     209      ar
    312     198     210      ar
    313     199     210      ar
    314     199     211      ar
    315     200     211      ar
    316     200     212      ar
    317     201     212      ar
    318     201     213      ar
    319     202     213      ar
    320     202     214      ar
    321     203     214      ar
    322     203     215      ar
    323     204     215      ar
    324     204     216      ar
    325     205     217      ar
    326     206     218      ar
    327     207     219      ar
    328     208     220      ar
    329     209     221      ar
    330     210     222      ar
    331     211     223      ar
    332     212     224      ar
    333     213     225      ar
    334     214     226      ar
    335     215     227      ar
    336     216     228      ar
    337     217     229      ar
    338     217     230      ar
    339     218     230      ar
    340     218     231      ar
    341     219     231      ar
    342     219     232      ar
    343     220     232      ar
    344     220     233      ar
    345     221     233      ar
    346     221     234      ar
    347     222     234      ar
    348     222     235      ar
    349     223     235      ar
    350     223     236      ar
    351     224     236      ar
    352     224     237      ar
    353     225     237      ar
    354     225     238      ar
    355     226     238      ar
    356     226     239      ar
    357     227     239      ar
    358     227     240      ar
    359     228     229      ar
    360     228     240      ar
    361     229     241      ar
    362     230     242      ar
    363     231     243      ar
    364     232     244      ar
    365     233     245      ar
    366     234     246      ar
    367     235     247      ar
    368     236     248      ar
    369     237     249      ar
    370     238     250      ar
    371     239     251      ar
    372     240     252      ar
    373     241     253      ar
    374     241     264      ar
    375     242     253      ar
    376     242     254      ar
    377     243     254      ar
    378     243     255      ar
    379     244     255      ar
    380     244     256      ar
    381     245     256      ar
    382     245     257      ar
    383     246     257      ar
    384     246     258      ar
    385     247     258      ar
    386     247     259      ar
    387     248     259      ar
    388     248     260      ar
    389     249     260      ar
    390     249     261      ar
    391     250     261      ar
    392     250     262      ar
    393     251     262      ar
    394     251     263      ar
    395     252     263      ar
    396     252     264      ar
    397     253     265      ar
    398     254     266      ar
    399     255     267      ar
    400     256     268      ar
    401     257     269      ar
    402     258     270      ar
    403     259     271      ar
    404     260     272      ar
    405     261     273      ar
    406     262     274      ar
    407     263     275      ar
    408     264     276      ar
    409     265     277      ar
    410     265     278      ar
    411     266     278      ar
    412     266     279      ar
    413     267     279      ar
    414     267     280      ar
    415     268     280      ar
    416     268     281      ar
    417     269     281      ar
    418     269     282      ar
    419     270     282      ar
    420     270     283      ar
    421     271     283      ar
    422     271     284      ar
    423     272     284      ar
    424     272     285      ar
    425     273     285      ar
    426     273     286      ar
    427     274     286      ar
    428     274     287      ar
    429     275     287      ar
    430     275     288      ar
    431     276     277      ar
    432     276     288      ar
    433     277     289      ar
    434     278     290      ar
    435     279     291      ar
    436     280     292      ar
    437     281     293      ar
    438     282     294      ar
    439     283     295      ar
    440     284     296      ar
    441     285     297      ar
    442     286     298      ar
    443     287     299      ar
    444     288     300      ar
    445     289     301      ar
    446     289     312      ar
    447     290     301      ar
    448     290     302      ar
    449     291     302      ar
    450     291     303      ar
    451     292     303      ar
    452     292     304      ar
    453     293     304      ar
    454     293     305      ar
    455     294     305      ar
    456     294     306      ar
    457     295     306      ar
    458     295     307      ar
    459     296     307      ar
    460     296     308      ar
    461     297     308      ar
    462     297     309      ar
    463     298     309      ar
    464     298     310      ar
    465     299     310      ar
    466     299     311      ar
    467     300     311      ar
    468     300     312      ar
    469     301     313      ar
    470     302     314      ar
    471     303     315      ar
    472     304     316      ar
    473     305     317      ar
    474     306     318      ar
    475     307     319      ar
    476     308     320      ar
    477     309     321      ar
    478     310     322      ar
    479     311     323      ar
    480     312     324      ar
    481     313     325      ar
    482     313     326      ar
    483     314     326      ar
    484     314     327      ar
    485     315     327      ar
    486     315     328      ar
    487     316     328      ar
    488     316     329      ar
    489     317     329      ar
    490     317     330      ar
    491     318     330      ar
    492     318     331      ar
    493     319     331      ar
    494     319     332      ar
    495     320     332      ar
    496     320     333      ar
    497     321     333      ar
    498     321     334      ar
    499     322     334      ar
    500     322     335      ar
    501     323     335      ar
    502     323     336      ar
    503     324     325      ar
    504     324     336      ar
    505     325     337      ar
    506     326     338      ar
    507     327     339      ar
    508     328     340      ar
    509     329     341      ar
    510     330     342      ar
    511     331     343      ar
    512     332     344      ar
    513     333     345      ar
    514     334     346      ar
    515     335     347      ar
    516     336     348      ar
    517     337     349      ar
    518     337     360      ar
    519     338     349      ar
    520     338     350      ar
    521     339     350      ar
    522     339     351      ar
    523     340     351      ar
    524     340     352      ar
    525     341     352      ar
    526     341     353      ar
    527     342     353      ar
    528     342     354      ar
    529     343     354      ar
    530     343     355      ar
    531     344     355      ar
    532     344     356      ar
    533     345     356      ar
    534     345     357      ar
    535     346     357      ar
    536     346     358      ar
    537     347     358      ar
    538     347     359      ar
    539     348     359      ar
    540     348     360      ar
    541     349     361      ar
    542     350     362      ar
    543     351     363      ar
    544     352     364      ar
    545     353     365      ar
    546     354     366      ar
    547     355     367      ar
    548     356     368      ar
    549     357     369      ar
    550     358     370      ar
    551     359     371      ar
    552     360     372      ar
    553     361     373      ar
    554     361     374      ar
    555     362     374      ar
    556     362     375      ar
    557     363     375      ar
    558     363     376      ar
    559     364     376      ar
    560     364     377      ar
    561     365     377      ar
    562     365     378      ar
    563     366     378      ar
    564     366     379      ar
    565     367     379      ar
    566     367     380      ar
    567     368     380      ar
    568     368     381      ar
    569     369     381      ar
    570     369     382      ar
    571     370     382      ar
    572     370     383      ar
    573     371     383      ar
    574     371     384      ar
    575     372     373      ar
    576     372     384      ar
    577     373     385      ar
    578     374     386      ar
    579     375     387      ar
    580     376     388      ar
    581     377     389      ar
    582     378     390      ar
    583     379     391      ar
    584     380     392      ar
    585     381     393      ar
    586     382     394      ar
    587     383     395      ar
    588     384     396      ar
    589     385     397      ar
    590     385     408      ar
    591     386     397      ar
    592     386     398      ar
    593     387     398      ar
    594     387     399      ar
    595     388     399      ar
    596     388     400      ar
    597     389     400      ar
    598     389     401      ar
    599     390     401      ar
    600     390     402      ar
    601     391     402      ar
    602     391     403      ar
    603     392     403      ar
    604     392     404      ar
    605     393     404      ar
    606     393     405      ar
    607     394     405      ar
    608     394     406      ar
    609     395     406      ar
    610     395     407      ar
    611     396     407      ar
    612     396     408      ar
    613     397     409      ar
    614     398     410      ar
    615     399     411      ar
    616     400     412      ar
    617     401     413      ar
    618     402     414      ar
    619     403     415      ar
    620     404     416      ar
    621     405     417      ar
    622     406     418      ar
    623     407     419      ar
    624     408     420      ar
    625     409     421      ar
    626     409     422      ar
    627     410     422      ar
    628     410     423      ar
    629     411     423      ar
    630     411     424      ar
    631     412     424      ar
    632     412     425      ar
    633     413     425      ar
    634     413     426      ar
    635     414     426      ar
    636     414     427      ar
    637     415     427      ar
    638     415     428      ar
    639     416     428      ar
    640     416     429      ar
    641     417     429      ar
    642     417     430      ar
    643     418     430      ar
    644     418     431      ar
    645     419     431      ar
    646     419     432      ar
    647     420     421      ar
    648     420     432      ar
    649     421     433      ar
    650     422     434      ar
    651     423     435      ar
    652     424     436      ar
    653     425     437      ar
    654     426     438      ar
    655     427     439      ar
    656     428     440      ar
    657     429     441      ar
    658     430     442      ar
    659     431     443      ar
    660     432     444      ar
    661     433     445      ar
    662     433     456      ar
    663     434     445      ar
    664     434     446      ar
    665     435     446      ar
    666     435     447      ar
    667     436     447      ar
    668     436     448      ar
    669     437     448      ar
    670     437     449      ar
    671     438     449      ar
    672     438     450      ar
    673     439     450      ar
    674     439     451      ar
    675     440     451      ar
    676     440     452      ar
    677     441     452      ar
    678     441     453      ar
    679     442     453      ar
    680     442     454      ar
    681     443     454      ar
    682     443     455      ar
    683     444     455      ar
    684     444     456      ar
    685     445     457      ar
    686     446     458      ar
    687     447     459      ar
    688     448     460      ar
    689     449     461      ar
    690     450     462      ar
    691     451     463      ar
    692     452     464      ar
    693     453     465      ar
    694     454     466      ar
    695     455     467      ar
    696     456     468      ar
    697     457     469      ar
    698     457     470      ar
    699     458     470      ar
    700     458     471      ar
    701     459     471      ar
    702     459     472      ar
    703     460     472      ar
    704     460     473      ar
    705     461     473      ar
    706     461     474      ar
    707     462     474      ar
    708     462     475      ar
    709     463     475      ar
    710     463     476      ar
    711     464     476      ar
    712     464     477      ar
    713     465     477      ar
    714     465     478      ar
    715     466     478      ar
    716     466     479      ar
    717     467     479      ar
    718     467     480      ar
    719     468     469      ar
    720     468     480      ar
    721     469     481      ar
    722     470     482      ar
    723     471     483      ar
    724     472     484      ar
    725     473     485      ar
    726     474     486      ar
    727     475     487      ar
    728     476     488      ar
    729     477     489      ar
    730     478     490      ar
    731     479     491      ar
    732     480     492      ar
    733     481     493      ar
    734     481     504      ar
    735     482     493      ar
    736     482     494      ar
    737     483     494      ar
    738     483     495      ar
    739     484     495      ar
    740     484     496      ar
    741     485     496      ar
    742     485     497      ar
    743     486     497      ar
    744     486     498      ar
    745     487     498      ar
    746     487     499      ar
    747     488     499      ar
    748     488     500      ar
    749     489     500      ar
    750     489     501      ar
    751     490     501      ar
    752     490     502      ar
    753     491     502      ar
    754     491     503      ar
    755     492     503      ar
    756     492     504      ar
    757     493     505      ar
    758     494     506      ar
    759     495     507      ar
    760     496     508      ar
    761     497     509      ar
    762     498     510      ar
    763     499     511      ar
    764     500     512      ar
    765     501     513      ar
    766     502     514      ar
    767     503     515      ar
    768     504     516      ar
    769     505     517      ar
    770     505     518      ar
    771     506     518      ar
    772     506     519      ar
    773     507     519      ar
    774     507     520      ar
    775     508     520      ar
    776     508     521      ar
    777     509     521      ar
    778     509     522      ar
    779     510     522      ar
    780     510     523      ar
    781     511     523      ar
    782     511     524      ar
    783     512     524      ar
    784     512     525      ar
    785     513     525      ar
    786     513     526      ar
    787     514     526      ar
    788     514     527      ar
    789     515     527      ar
    790     515     528      ar
    791     516     517      ar
    792     516     528      ar
    793     517     529      ar
    794     518     530      ar
    795     519     531      ar
    796     520     532      ar
    797     521     533      ar
    798     522     534      ar
    799     523     535      ar
    800     524     536      ar
    801     525     537      ar
    802     526     538      ar
    803     527     539      ar
    804     528     540      ar
    805     529     541      ar
    806     529     552      ar
    807     530     541      ar
    808     530     542      ar
    809     531     542      ar
    810     531     543      ar
    811     532     543      ar
    812     532     544      ar
    813     533     544      ar
    814     533     545      ar
    815     534     545      ar
    816     534     546      ar
    817     535     546      ar
    818     535     547      ar
    819     536     547      ar
    820     536     548      ar
    821     537     548      ar
    822     537     549      ar
    823     538     549      ar
    824     538     550      ar
    825     539     550      ar
    826     539     551      ar
    827     540     551      ar
    828     540     552      ar
    829     541     553      ar
    830     542     554      ar
    831     543     555      ar
    832     544     556      ar
    833     545     557      ar
    834     546     558      ar
    835     547     559      ar
    836     548     560      ar
    837     549     561      ar
    838     550     562      ar
    839     551     563      ar
    840     552     564      ar
    841     553     565      ar
    842     553     566      ar
    843     554     566      ar
    844     554     567      ar
    845     555     567      ar
    846     555     568      ar
    847     556     568      ar
    848     556     569      ar
    849     557     569      ar
    850     557     570      ar
    851     558     570      ar
    852     558     571      ar
    853     559     571      ar
    854     559     572      ar
    855     560     572      ar
    856     560     573      ar
    857     561     573      ar
    858     561     574      ar
    859     562     574      ar
    860     562     575      ar
    861     563     575      ar
    862     563     576      ar
    863     564     565      ar
    864     564     576      ar
    865     565     577       1
    866     566     580       1
    867     567     581       1
    868     568     584       1
    869     569     585       1
    870     570     588       1
    871     571     589       1
    872     572     592       1
    873     573     593       1
    874     574     596       1
    875     575     597       1
    876     576     600       1
    877     577     578       1
    878     577     579       1
    879     581     582       1
    880     581     583       1
    881     585     586       1
    882     585     587       1
    883     589     590       1
    884     589     591       1
    885     593     594       1
    886     593     595       1
    887     597     598       1
    888     597     599       1
    889     601     602       1
    890     601     603       1
    891     605     606       1
    892     605     607       1
    893     609     610       1
    894     609     611       1
    895     613     614       1
    896     613     615       1
    897     617     618       1
    898     617     619       1
    899     621     622       1
    900     621     623       1
